<?xml version="1.0" encoding="UTF-8"?>

<!-- generated on 2024-06-20 03:02:36 by Eclipse SUMO netedit Version 1.20.0
<configuration xmlns:xsi="http://www.w3.org/2001/XMLSchema-instance" xsi:noNamespaceSchemaLocation="http://sumo.dlr.de/xsd/neteditConfiguration.xsd">

    <input>
        <sumocfg-file value="F:\Project\Thesis\Thesis\Sumo\traci\map7\map7.sumocfg"/>
        <additional-files value=""/>
        <route-files value="F:\Project\Thesis\Thesis\Sumo\traci\map7\trips.xml"/>
        <sumo-net-file value="F:\Project\Thesis\Thesis\Sumo\traci\map7\map7.net.xml"/>
    </input>

    <output>
        <output-file value="F:\Project\Thesis\Thesis\Sumo\traci\map7\map7.net.xml"/>
    </output>

    <processing>
        <geometry.min-radius.fix.railways value="false"/>
        <geometry.max-grade.fix value="false"/>
        <offset.disable-normalization value="true"/>
        <lefthand value="0"/>
    </processing>

    <junctions>
        <no-turnarounds value="true"/>
        <junctions.corner-detail value="5"/>
        <junctions.limit-turn-speed value="5.50"/>
        <rectangular-lane-cut value="0"/>
    </junctions>

    <pedestrian>
        <walkingareas value="0"/>
    </pedestrian>

    <netedit>
        <ignore.routeelements value="false"/>
    </netedit>

</configuration>
-->

<net version="1.20" junctionCornerDetail="5" limitTurnSpeed="5.50" xmlns:xsi="http://www.w3.org/2001/XMLSchema-instance" xsi:noNamespaceSchemaLocation="http://sumo.dlr.de/xsd/net_file.xsd">

    <location netOffset="0.00,0.00" convBoundary="-432.54,-671.70,519.87,-76.44" origBoundary="-10000000000.00,-10000000000.00,10000000000.00,10000000000.00" projParameter="!"/>

    <edge id=":J10_0" function="internal">
        <lane id=":J10_0_0" index="0" speed="8.96" length="18.29" shape="513.34,-671.38 518.31,-670.69 521.85,-668.57 523.94,-665.02 524.58,-660.03"/>
        <lane id=":J10_0_1" index="1" speed="7.65" length="13.07" shape="513.35,-668.18 516.91,-667.69 519.43,-666.17 520.92,-663.64 521.38,-660.08"/>
    </edge>
    <edge id=":J10_2" function="internal">
        <lane id=":J10_2_0" index="0" speed="3.90" length="2.61" shape="514.98,-660.16 514.89,-660.87 514.59,-661.38 514.09,-661.68 513.38,-661.78"/>
        <lane id=":J10_2_1" index="1" speed="6.07" length="7.84" shape="518.18,-660.12 517.91,-662.25 517.01,-663.78 515.50,-664.69 513.36,-664.98"/>
    </edge>
    <edge id=":J12_0" function="internal">
        <lane id=":J12_0_0" index="0" speed="3.90" length="2.57" shape="-418.08,-666.83 -418.78,-666.73 -419.28,-666.44 -419.58,-665.95 -419.69,-665.25"/>
        <lane id=":J12_0_1" index="1" speed="6.08" length="7.72" shape="-418.04,-670.03 -420.14,-669.75 -421.65,-668.87 -422.56,-667.39 -422.89,-665.30"/>
    </edge>
    <edge id=":J12_2" function="internal">
        <lane id=":J12_2_0" index="0" speed="8.96" length="18.02" shape="-429.29,-665.39 -428.52,-670.27 -426.38,-673.73 -422.86,-675.78 -417.96,-676.43"/>
        <lane id=":J12_2_1" index="1" speed="7.66" length="12.87" shape="-426.09,-665.34 -425.54,-668.83 -424.01,-671.30 -421.50,-672.77 -418.00,-673.23"/>
    </edge>
    <edge id=":J13_0" function="internal">
        <lane id=":J13_0_0" index="0" speed="6.32" length="9.04" shape="-418.02,-390.03 -420.52,-389.93 -422.33,-389.04 -423.42,-387.36 -423.81,-384.88"/>
    </edge>
    <edge id=":J13_1" function="internal">
        <lane id=":J13_1_0" index="0" speed="9.65" length="19.66" shape="-417.68,-393.21 -423.10,-394.49 -426.95,-397.01 -429.22,-400.79 -429.92,-405.82"/>
    </edge>
    <edge id=":J13_2" function="internal">
        <lane id=":J13_2_0" index="0" speed="7.04" length="10.00" shape="-423.53,-405.73 -423.15,-403.30 -421.94,-401.46 -419.89,-400.22 -417.02,-399.58"/>
    </edge>
    <edge id=":J13_3" function="internal">
        <lane id=":J13_3_0" index="0" speed="13.89" length="20.86" shape="-423.53,-405.73 -423.81,-384.88"/>
        <lane id=":J13_3_1" index="1" speed="13.89" length="20.86" shape="-426.72,-405.78 -427.01,-384.92"/>
    </edge>
    <edge id=":J13_5" function="internal">
        <lane id=":J13_5_0" index="0" speed="13.89" length="20.87" shape="-433.41,-385.00 -433.12,-405.87"/>
        <lane id=":J13_5_1" index="1" speed="13.89" length="20.87" shape="-430.21,-384.96 -429.92,-405.82"/>
    </edge>
    <edge id=":J13_7" function="internal">
        <lane id=":J13_7_0" index="0" speed="9.12" length="5.00" shape="-430.21,-384.96 -429.44,-389.90"/>
    </edge>
    <edge id=":J13_8" function="internal">
        <lane id=":J13_8_0" index="0" speed="9.12" length="15.06" shape="-429.44,-389.90 -429.35,-390.46 -426.91,-394.20 -422.92,-396.18 -417.35,-396.40"/>
    </edge>
    <edge id=":J14_0" function="internal">
        <lane id=":J14_0_0" index="0" speed="6.09" length="11.83" shape="35.20,-327.85 34.75,-331.42 33.38,-333.13 31.11,-332.97 27.93,-330.95"/>
    </edge>
    <edge id=":J14_1" function="internal">
        <lane id=":J14_1_0" index="0" speed="10.84" length="24.77" shape="35.20,-327.85 34.26,-334.40 31.44,-339.31 26.74,-342.57 20.17,-344.18"/>
    </edge>
    <edge id=":J14_2" function="internal">
        <lane id=":J14_2_0" index="0" speed="13.89" length="32.82" shape="35.20,-327.85 34.55,-335.76 32.71,-344.05 29.80,-352.00 25.98,-358.94"/>
    </edge>
    <edge id=":J14_3" function="internal">
        <lane id=":J14_3_0" index="0" speed="13.89" length="39.13" shape="35.20,-327.85 36.27,-336.83 39.06,-347.46 42.91,-357.75 47.19,-365.73"/>
        <lane id=":J14_3_1" index="1" speed="13.89" length="39.13" shape="38.40,-327.85 39.38,-336.55 41.97,-346.55 45.63,-356.21 49.82,-363.91"/>
    </edge>
    <edge id=":J14_5" function="internal">
        <lane id=":J14_5_0" index="0" speed="13.23" length="34.93" shape="38.40,-327.85 39.68,-337.02 43.53,-344.11 49.95,-349.13 58.93,-352.08"/>
    </edge>
    <edge id=":J14_6" function="internal">
        <lane id=":J14_6_0" index="0" speed="8.17" length="23.53" shape="38.40,-327.85 39.96,-334.09 43.94,-337.64 49.26,-338.04 54.84,-334.82"/>
    </edge>
    <edge id=":J14_7" function="internal">
        <lane id=":J14_7_0" index="0" speed="5.48" length="9.69" shape="50.39,-330.22 47.94,-332.10 46.20,-332.33 45.15,-330.91 44.80,-327.85"/>
    </edge>
    <edge id=":J14_8" function="internal">
        <lane id=":J14_8_0" index="0" speed="10.96" length="25.00" shape="50.39,-330.22 44.99,-334.13 39.44,-335.56 33.75,-334.50 27.93,-330.95"/>
    </edge>
    <edge id=":J14_9" function="internal">
        <lane id=":J14_9_0" index="0" speed="13.89" length="33.75" shape="50.39,-330.22 44.03,-335.19 36.31,-339.41 28.07,-342.54 20.17,-344.18"/>
    </edge>
    <edge id=":J14_10" function="internal">
        <lane id=":J14_10_0" index="0" speed="13.89" length="37.41" shape="50.39,-330.22 44.33,-336.48 37.60,-344.09 31.16,-351.95 25.98,-358.94"/>
        <lane id=":J14_10_1" index="1" speed="13.89" length="37.41" shape="52.61,-332.52 46.62,-338.70 40.04,-346.14 33.74,-353.83 28.62,-360.74"/>
    </edge>
    <edge id=":J14_12" function="internal">
        <lane id=":J14_12_0" index="0" speed="13.09" length="9.93" shape="52.61,-332.52 46.92,-339.81 46.72,-340.46"/>
    </edge>
    <edge id=":J14_13" function="internal">
        <lane id=":J14_13_0" index="0" speed="8.96" length="5.52" shape="52.61,-332.52 49.56,-337.12"/>
    </edge>
    <edge id=":J14_50" function="internal">
        <lane id=":J14_50_0" index="0" speed="13.09" length="24.87" shape="46.72,-340.46 44.56,-347.47 45.53,-355.50 49.82,-363.91"/>
    </edge>
    <edge id=":J14_51" function="internal">
        <lane id=":J14_51_0" index="0" speed="8.96" length="21.06" shape="49.56,-337.12 48.56,-338.63 48.48,-344.49 52.05,-349.26 58.93,-352.08"/>
    </edge>
    <edge id=":J14_14" function="internal">
        <lane id=":J14_14_0" index="0" speed="6.48" length="13.19" shape="60.10,-345.79 56.13,-344.54 54.30,-342.68 54.61,-340.21 57.06,-337.12"/>
    </edge>
    <edge id=":J14_15" function="internal">
        <lane id=":J14_15_0" index="0" speed="11.45" length="25.93" shape="60.10,-345.79 53.41,-343.60 48.62,-339.88 45.76,-334.63 44.80,-327.85"/>
    </edge>
    <edge id=":J14_16" function="internal">
        <lane id=":J14_16_0" index="0" speed="13.89" length="35.68" shape="60.10,-345.79 52.02,-343.58 43.24,-340.05 34.85,-335.67 27.93,-330.95"/>
    </edge>
    <edge id=":J14_17" function="internal">
        <lane id=":J14_17_0" index="0" speed="13.89" length="39.58" shape="60.10,-345.79 51.11,-344.62 40.17,-343.91 29.22,-343.73 20.17,-344.18"/>
        <lane id=":J14_17_1" index="1" speed="13.89" length="39.58" shape="59.51,-348.93 50.67,-347.77 40.05,-347.07 29.41,-346.91 20.50,-347.36"/>
    </edge>
    <edge id=":J14_19" function="internal">
        <lane id=":J14_19_0" index="0" speed="13.89" length="9.94" shape="59.51,-348.93 49.99,-348.26 49.60,-348.34"/>
    </edge>
    <edge id=":J14_20" function="internal">
        <lane id=":J14_20_0" index="0" speed="8.14" length="3.61" shape="59.51,-348.93 55.91,-349.17"/>
    </edge>
    <edge id=":J14_52" function="internal">
        <lane id=":J14_52_0" index="0" speed="13.89" length="25.21" shape="49.60,-348.34 41.67,-350.00 34.54,-354.16 28.62,-360.74"/>
    </edge>
    <edge id=":J14_53" function="internal">
        <lane id=":J14_53_0" index="0" speed="8.14" length="19.97" shape="55.91,-349.17 53.09,-349.36 48.90,-352.69 47.58,-357.88 49.82,-363.91"/>
    </edge>
    <edge id=":J14_21" function="internal">
        <lane id=":J14_21_0" index="0" speed="5.47" length="9.75" shape="55.08,-360.27 53.60,-357.52 53.65,-355.76 55.23,-355.00 58.34,-355.22"/>
    </edge>
    <edge id=":J14_22" function="internal">
        <lane id=":J14_22_0" index="0" speed="11.29" length="25.64" shape="55.08,-360.27 51.90,-354.05 51.17,-348.12 52.89,-342.48 57.06,-337.12"/>
    </edge>
    <edge id=":J14_23" function="internal">
        <lane id=":J14_23_0" index="0" speed="13.89" length="34.39" shape="55.08,-360.27 51.07,-353.14 47.80,-344.72 45.61,-335.98 44.80,-327.85"/>
    </edge>
    <edge id=":J14_24" function="internal">
        <lane id=":J14_24_0" index="0" speed="13.89" length="39.58" shape="55.08,-360.27 49.53,-353.10 42.28,-344.89 34.65,-337.04 27.93,-330.95"/>
        <lane id=":J14_24_1" index="1" speed="13.89" length="39.58" shape="52.45,-362.09 46.99,-355.03 39.96,-347.04 32.53,-339.42 25.91,-333.44"/>
    </edge>
    <edge id=":J14_26" function="internal">
        <lane id=":J14_26_0" index="0" speed="13.89" length="9.92" shape="52.45,-362.09 46.08,-354.85 45.85,-354.70"/>
    </edge>
    <edge id=":J14_27" function="internal">
        <lane id=":J14_27_0" index="0" speed="10.12" length="7.91" shape="52.45,-362.09 47.08,-356.27"/>
    </edge>
    <edge id=":J14_54" function="internal">
        <lane id=":J14_54_0" index="0" speed="13.89" length="27.11" shape="45.85,-354.70 38.63,-349.98 30.10,-347.49 20.50,-347.36"/>
    </edge>
    <edge id=":J14_55" function="internal">
        <lane id=":J14_55_0" index="0" speed="10.12" length="21.90" shape="47.08,-356.27 46.59,-355.74 40.51,-353.22 34.44,-354.80 28.62,-360.74"/>
    </edge>
    <edge id=":J14_28" function="internal">
        <lane id=":J14_28_0" index="0" speed="7.74" length="16.92" shape="33.91,-364.36 37.03,-361.08 40.29,-360.22 43.67,-361.77 47.19,-365.73"/>
    </edge>
    <edge id=":J14_29" function="internal">
        <lane id=":J14_29_0" index="0" speed="13.23" length="27.72" shape="33.91,-364.36 38.54,-359.23 44.16,-356.01 50.76,-354.67 58.34,-355.22"/>
    </edge>
    <edge id=":J14_30" function="internal">
        <lane id=":J14_30_0" index="0" speed="13.89" length="36.02" shape="33.91,-364.36 38.89,-357.59 44.90,-350.25 51.20,-343.15 57.06,-337.12"/>
        <lane id=":J14_30_1" index="1" speed="13.89" length="36.02" shape="33.91,-364.36 38.54,-357.24 43.79,-349.10 49.32,-341.21 54.84,-334.82"/>
    </edge>
    <edge id=":J14_32" function="internal">
        <lane id=":J14_32_0" index="0" speed="13.89" length="16.27" shape="33.91,-364.36 37.99,-356.57 40.49,-349.52"/>
        <lane id=":J14_32_1" index="1" speed="13.89" length="4.81" shape="31.26,-362.55 33.53,-358.30"/>
    </edge>
    <edge id=":J14_34" function="internal">
        <lane id=":J14_34_0" index="0" speed="12.37" length="3.80" shape="31.26,-362.55 32.91,-359.12"/>
    </edge>
    <edge id=":J14_35" function="internal">
        <lane id=":J14_35_0" index="0" speed="8.42" length="2.58" shape="31.26,-362.55 32.15,-360.12"/>
    </edge>
    <edge id=":J14_56" function="internal">
        <lane id=":J14_56_0" index="0" speed="13.89" length="22.17" shape="40.49,-349.52 41.47,-346.76 43.89,-336.61 44.80,-327.85"/>
    </edge>
    <edge id=":J14_57" function="internal">
        <lane id=":J14_57_0" index="0" speed="13.89" length="31.75" shape="33.53,-358.30 35.26,-355.05 38.55,-345.85 40.78,-336.33 41.60,-327.85"/>
    </edge>
    <edge id=":J14_58" function="internal">
        <lane id=":J14_58_0" index="0" speed="12.37" length="29.36" shape="32.91,-359.12 35.01,-354.76 35.37,-347.31 32.34,-340.20 25.91,-333.44"/>
    </edge>
    <edge id=":J14_59" function="internal">
        <lane id=":J14_59_0" index="0" speed="8.42" length="21.76" shape="32.15,-360.12 33.49,-356.42 31.93,-351.35 27.34,-348.08 20.50,-347.36"/>
    </edge>
    <edge id=":J14_36" function="internal">
        <lane id=":J14_36_0" index="0" speed="5.78" length="10.60" shape="21.16,-353.73 24.85,-353.70 26.88,-354.56 27.26,-356.31 25.98,-358.94"/>
    </edge>
    <edge id=":J14_37" function="internal">
        <lane id=":J14_37_0" index="0" speed="13.89" length="30.17" shape="21.16,-353.73 28.98,-353.83 35.93,-355.86 41.99,-359.83 47.19,-365.73"/>
    </edge>
    <edge id=":J14_38" function="internal">
        <lane id=":J14_38_0" index="0" speed="13.89" length="37.75" shape="21.16,-353.73 29.79,-353.26 39.80,-353.40 49.78,-354.07 58.34,-355.22"/>
        <lane id=":J14_38_1" index="1" speed="13.89" length="37.75" shape="20.83,-350.54 29.60,-350.09 39.92,-350.24 50.23,-350.92 58.93,-352.08"/>
    </edge>
    <edge id=":J14_40" function="internal">
        <lane id=":J14_40_0" index="0" speed="13.89" length="4.15" shape="20.83,-350.54 24.88,-349.63"/>
    </edge>
    <edge id=":J14_41" function="internal">
        <lane id=":J14_41_0" index="0" speed="12.69" length="3.76" shape="20.83,-350.54 24.48,-349.65"/>
    </edge>
    <edge id=":J14_42" function="internal">
        <lane id=":J14_42_0" index="0" speed="8.14" length="2.47" shape="20.83,-350.54 23.14,-349.69"/>
    </edge>
    <edge id=":J14_60" function="internal">
        <lane id=":J14_60_0" index="0" speed="13.89" length="33.74" shape="24.88,-349.63 29.33,-348.63 38.87,-344.90 47.89,-340.06 54.84,-334.82"/>
    </edge>
    <edge id=":J14_61" function="internal">
        <lane id=":J14_61_0" index="0" speed="12.69" length="30.57" shape="24.48,-349.65 29.92,-348.31 36.41,-343.78 40.30,-336.96 41.60,-327.85"/>
    </edge>
    <edge id=":J14_62" function="internal">
        <lane id=":J14_62_0" index="0" speed="8.14" length="21.10" shape="23.14,-349.69 26.87,-348.31 29.96,-343.95 29.75,-338.60 25.91,-333.44"/>
    </edge>
    <edge id=":J14_43" function="internal">
        <lane id=":J14_43_0" index="0" speed="5.47" length="9.74" shape="21.88,-338.41 24.06,-340.63 24.50,-342.33 23.20,-343.51 20.17,-344.18"/>
    </edge>
    <edge id=":J14_44" function="internal">
        <lane id=":J14_44_0" index="0" speed="10.46" length="23.45" shape="21.88,-338.41 26.51,-343.24 28.74,-348.27 28.56,-353.51 25.98,-358.94"/>
    </edge>
    <edge id=":J14_45" function="internal">
        <lane id=":J14_45_0" index="0" speed="13.89" length="37.78" shape="21.88,-338.41 28.31,-344.18 35.31,-351.35 41.92,-358.88 47.19,-365.73"/>
        <lane id=":J14_45_1" index="1" speed="13.89" length="37.78" shape="23.90,-335.92 30.42,-341.80 37.63,-349.20 44.46,-356.96 49.82,-363.91"/>
    </edge>
    <edge id=":J14_47" function="internal">
        <lane id=":J14_47_0" index="0" speed="13.89" length="4.87" shape="23.90,-335.92 27.95,-338.63"/>
    </edge>
    <edge id=":J14_48" function="internal">
        <lane id=":J14_48_0" index="0" speed="12.80" length="3.79" shape="23.90,-335.92 27.13,-337.89"/>
    </edge>
    <edge id=":J14_49" function="internal">
        <lane id=":J14_49_0" index="0" speed="8.63" length="2.70" shape="23.90,-335.92 26.31,-337.12"/>
    </edge>
    <edge id=":J14_63" function="internal">
        <lane id=":J14_63_0" index="0" speed="13.89" length="33.94" shape="27.95,-338.63 31.26,-340.85 40.64,-345.68 50.40,-349.67 58.93,-352.08"/>
    </edge>
    <edge id=":J14_64" function="internal">
        <lane id=":J14_64_0" index="0" speed="12.80" length="30.65" shape="27.13,-337.89 31.90,-340.78 39.73,-342.22 47.37,-340.23 54.84,-334.82"/>
    </edge>
    <edge id=":J14_65" function="internal">
        <lane id=":J14_65_0" index="0" speed="8.63" length="22.68" shape="26.31,-337.12 30.20,-339.06 35.90,-338.49 40.01,-334.63 41.60,-327.85"/>
    </edge>
    <edge id=":J15_0" function="internal">
        <lane id=":J15_0_0" index="0" speed="13.89" length="20.83" shape="50.40,-71.66 29.57,-71.69"/>
        <lane id=":J15_0_1" index="1" speed="13.89" length="20.83" shape="50.40,-74.86 29.58,-74.89"/>
    </edge>
    <edge id=":J15_2" function="internal">
        <lane id=":J15_2_0" index="0" speed="9.26" length="5.06" shape="50.40,-74.86 45.39,-75.58"/>
    </edge>
    <edge id=":J15_8" function="internal">
        <lane id=":J15_8_0" index="0" speed="9.26" length="14.31" shape="45.39,-75.58 45.15,-75.61 41.40,-77.86 39.15,-81.62 38.40,-86.88"/>
    </edge>
    <edge id=":J15_3" function="internal">
        <lane id=":J15_3_0" index="0" speed="6.51" length="9.05" shape="44.80,-86.88 45.15,-84.42 46.20,-82.66 47.95,-81.61 50.40,-81.26"/>
    </edge>
    <edge id=":J15_4" function="internal">
        <lane id=":J15_4_0" index="0" speed="9.25" length="19.38" shape="41.60,-86.88 40.85,-81.62 38.59,-77.87 34.84,-75.63 29.58,-74.89"/>
    </edge>
    <edge id=":J15_5" function="internal">
        <lane id=":J15_5_0" index="0" speed="6.50" length="9.03" shape="29.60,-81.29 32.05,-81.63 33.80,-82.68 34.85,-84.43 35.20,-86.88"/>
    </edge>
    <edge id=":J15_6" function="internal">
        <lane id=":J15_6_0" index="0" speed="13.89" length="20.81" shape="29.60,-81.29 50.40,-81.26"/>
        <lane id=":J15_6_1" index="1" speed="13.89" length="20.81" shape="29.59,-78.09 50.40,-78.06"/>
    </edge>
    <edge id=":J16_0" function="internal">
        <lane id=":J16_0_0" index="0" speed="11.90" length="17.42" shape="-174.80,-652.75 -178.49,-657.71 -181.82,-661.27 -184.79,-663.41 -187.39,-664.15"/>
    </edge>
    <edge id=":J16_1" function="internal">
        <lane id=":J16_1_0" index="0" speed="8.82" length="25.55" shape="-172.16,-654.55 -175.72,-661.51 -175.50,-666.46 -171.51,-669.40 -163.75,-670.34"/>
    </edge>
    <edge id=":J16_2" function="internal">
        <lane id=":J16_2_0" index="0" speed="5.59" length="9.35" shape="-163.80,-663.94 -166.64,-663.60 -168.10,-662.52 -168.18,-660.71 -166.88,-658.16"/>
    </edge>
    <edge id=":J16_3" function="internal">
        <lane id=":J16_3_0" index="0" speed="13.89" length="23.58" shape="-163.80,-663.94 -187.39,-664.15"/>
        <lane id=":J16_3_1" index="1" speed="13.89" length="23.58" shape="-163.77,-667.14 -187.35,-667.35"/>
    </edge>
    <edge id=":J16_5" function="internal">
        <lane id=":J16_5_0" index="0" speed="13.89" length="23.56" shape="-187.27,-673.74 -163.73,-673.54"/>
        <lane id=":J16_5_1" index="1" speed="13.89" length="23.56" shape="-187.31,-670.55 -163.75,-670.34"/>
    </edge>
    <edge id=":J16_7" function="internal">
        <lane id=":J16_7_0" index="0" speed="13.77" length="3.47" shape="-187.31,-670.55 -183.92,-669.80"/>
    </edge>
    <edge id=":J16_8" function="internal">
        <lane id=":J16_8_0" index="0" speed="13.77" length="20.02" shape="-183.92,-669.80 -183.14,-669.62 -178.78,-666.95 -174.24,-662.53 -169.52,-656.36"/>
    </edge>
    <edge id=":J17_0" function="internal">
        <lane id=":J17_0_0" index="0" speed="11.85" length="17.29" shape="268.11,-660.73 265.52,-660.02 262.55,-657.92 259.22,-654.42 255.53,-649.53"/>
    </edge>
    <edge id=":J17_1" function="internal">
        <lane id=":J17_1_0" index="0" speed="13.89" length="23.48" shape="268.11,-660.73 244.61,-660.82"/>
        <lane id=":J17_1_1" index="1" speed="13.89" length="23.48" shape="268.10,-663.93 244.64,-664.02"/>
    </edge>
    <edge id=":J17_3" function="internal">
        <lane id=":J17_3_0" index="0" speed="13.89" length="23.40" shape="244.69,-670.42 268.07,-670.33"/>
        <lane id=":J17_3_1" index="1" speed="13.89" length="23.40" shape="244.66,-667.22 268.09,-667.13"/>
    </edge>
    <edge id=":J17_5" function="internal">
        <lane id=":J17_5_0" index="0" speed="8.81" length="5.40" shape="244.66,-667.22 250.02,-666.49"/>
    </edge>
    <edge id=":J17_8" function="internal">
        <lane id=":J17_8_0" index="0" speed="8.81" length="20.01" shape="250.02,-666.49 252.35,-666.18 256.29,-663.18 256.47,-658.24 252.90,-651.35"/>
    </edge>
    <edge id=":J17_6" function="internal">
        <lane id=":J17_6_0" index="0" speed="5.60" length="9.33" shape="247.64,-654.99 248.95,-657.52 248.88,-659.34 247.44,-660.44 244.61,-660.82"/>
    </edge>
    <edge id=":J17_7" function="internal">
        <lane id=":J17_7_0" index="0" speed="13.73" length="23.37" shape="250.27,-653.17 255.00,-659.27 259.55,-663.62 263.91,-666.25 268.09,-667.13"/>
    </edge>
    <edge id=":J5_0" function="internal">
        <lane id=":J5_0_0" index="0" speed="8.97" length="17.76" shape="-426.47,-77.53 -431.24,-78.38 -434.63,-80.56 -436.64,-84.05 -437.26,-88.86"/>
        <lane id=":J5_0_1" index="1" speed="7.66" length="12.69" shape="-426.35,-80.72 -429.76,-81.34 -432.18,-82.89 -433.61,-85.39 -434.06,-88.82"/>
    </edge>
    <edge id=":J5_2" function="internal">
        <lane id=":J5_2_0" index="0" speed="3.91" length="2.54" shape="-427.66,-88.74 -427.57,-88.05 -427.28,-87.55 -426.80,-87.24 -426.12,-87.12"/>
        <lane id=":J5_2_1" index="1" speed="6.08" length="7.61" shape="-430.86,-88.78 -430.59,-86.72 -429.73,-85.22 -428.28,-84.29 -426.23,-83.92"/>
    </edge>
    <edge id=":J6_0" function="internal">
        <lane id=":J6_0_0" index="0" speed="13.89" length="28.46" shape="-270.17,-72.59 -298.69,-72.90"/>
        <lane id=":J6_0_1" index="1" speed="13.89" length="28.46" shape="-270.17,-75.79 -298.57,-76.09"/>
    </edge>
    <edge id=":J6_2" function="internal">
        <lane id=":J6_2_0" index="0" speed="7.99" length="2.77" shape="-270.17,-75.79 -272.83,-76.55"/>
    </edge>
    <edge id=":J6_9" function="internal">
        <lane id=":J6_9_0" index="0" speed="7.99" length="20.96" shape="-272.83,-76.55 -276.33,-77.55 -279.69,-81.85 -279.77,-87.30 -276.08,-92.54"/>
    </edge>
    <edge id=":J6_3" function="internal">
        <lane id=":J6_3_0" index="0" speed="5.46" length="10.12" shape="-272.04,-87.57 -274.40,-85.23 -274.87,-83.55 -273.45,-82.54 -270.15,-82.19"/>
    </edge>
    <edge id=":J6_4" function="internal">
        <lane id=":J6_4_0" index="0" speed="13.89" length="29.96" shape="-272.04,-87.57 -278.08,-82.57 -284.53,-77.73 -291.40,-74.15 -298.69,-72.90"/>
        <lane id=":J6_4_1" index="1" speed="13.89" length="29.96" shape="-274.06,-90.05 -279.76,-85.16 -285.48,-80.57 -291.62,-77.24 -298.57,-76.09"/>
    </edge>
    <edge id=":J6_6" function="internal">
        <lane id=":J6_6_0" index="0" speed="13.89" length="24.60" shape="-298.34,-82.49 -292.05,-83.41 -287.38,-86.26 -283.13,-90.36 -278.09,-95.02"/>
    </edge>
    <edge id=":J6_7" function="internal">
        <lane id=":J6_7_0" index="0" speed="13.89" length="28.25" shape="-298.34,-82.49 -270.15,-82.19"/>
        <lane id=":J6_7_1" index="1" speed="13.89" length="28.25" shape="-298.46,-79.29 -270.16,-78.99"/>
    </edge>
    <edge id=":J7_0" function="internal">
        <lane id=":J7_0_0" index="0" speed="13.89" length="26.54" shape="326.72,-71.75 300.16,-71.64"/>
        <lane id=":J7_0_1" index="1" speed="13.89" length="26.54" shape="326.67,-74.95 300.16,-74.84"/>
    </edge>
    <edge id=":J7_2" function="internal">
        <lane id=":J7_2_0" index="0" speed="13.89" length="4.05" shape="326.67,-74.95 322.68,-75.64"/>
    </edge>
    <edge id=":J7_8" function="internal">
        <lane id=":J7_8_0" index="0" speed="13.89" length="22.95" shape="322.68,-75.64 320.02,-76.11 314.59,-79.34 309.69,-83.91 304.62,-89.07"/>
    </edge>
    <edge id=":J7_3" function="internal">
        <lane id=":J7_3_0" index="0" speed="13.89" length="22.39" shape="309.07,-93.68 313.43,-88.80 316.77,-84.85 320.63,-82.23 326.57,-81.35"/>
    </edge>
    <edge id=":J7_4" function="internal">
        <lane id=":J7_4_0" index="0" speed="8.12" length="23.60" shape="306.84,-91.37 310.20,-85.89 309.89,-80.53 306.39,-76.46 300.16,-74.84"/>
    </edge>
    <edge id=":J7_5" function="internal">
        <lane id=":J7_5_0" index="0" speed="5.47" length="9.79" shape="300.16,-81.24 303.29,-81.59 304.70,-82.62 304.40,-84.35 302.40,-86.77"/>
    </edge>
    <edge id=":J7_6" function="internal">
        <lane id=":J7_6_0" index="0" speed="13.89" length="26.43" shape="300.16,-81.24 326.57,-81.35"/>
        <lane id=":J7_6_1" index="1" speed="13.89" length="26.43" shape="300.16,-78.04 326.62,-78.15"/>
    </edge>
    <edge id=":J8_0" function="internal">
        <lane id=":J8_0_0" index="0" speed="8.97" length="17.63" shape="515.62,-85.61 514.86,-80.86 512.77,-77.44 509.35,-75.35 504.60,-74.60"/>
        <lane id=":J8_0_1" index="1" speed="7.66" length="12.59" shape="512.42,-85.66 511.87,-82.27 510.38,-79.83 507.94,-78.34 504.55,-77.80"/>
    </edge>
    <edge id=":J8_2" function="internal">
        <lane id=":J8_2_0" index="0" speed="3.91" length="2.52" shape="504.44,-84.20 505.12,-84.31 505.61,-84.61 505.91,-85.09 506.02,-85.77"/>
        <lane id=":J8_2_1" index="1" speed="6.08" length="7.56" shape="504.49,-81.00 506.53,-81.32 508.00,-82.22 508.89,-83.68 509.22,-85.72"/>
    </edge>
    <edge id=":J9_0" function="internal">
        <lane id=":J9_0_0" index="0" speed="13.89" length="21.10" shape="521.74,-444.81 521.42,-423.71"/>
        <lane id=":J9_0_1" index="1" speed="13.89" length="21.10" shape="518.54,-444.86 518.22,-423.77"/>
    </edge>
    <edge id=":J9_2" function="internal">
        <lane id=":J9_2_0" index="0" speed="10.20" length="4.34" shape="518.54,-444.86 517.76,-440.58"/>
    </edge>
    <edge id=":J9_8" function="internal">
        <lane id=":J9_8_0" index="0" speed="10.20" length="15.81" shape="517.76,-440.58 517.67,-440.09 515.21,-436.34 511.14,-433.60 505.48,-431.89"/>
    </edge>
    <edge id=":J9_3" function="internal">
        <lane id=":J9_3_0" index="0" speed="7.76" length="11.27" shape="504.31,-438.18 507.71,-439.15 510.15,-440.60 511.63,-442.53 512.14,-444.94"/>
    </edge>
    <edge id=":J9_4" function="internal">
        <lane id=":J9_4_0" index="0" speed="8.99" length="20.97" shape="504.89,-435.04 510.81,-435.28 515.00,-433.48 517.47,-429.64 518.22,-423.77"/>
    </edge>
    <edge id=":J9_5" function="internal">
        <lane id=":J9_5_0" index="0" speed="6.12" length="9.06" shape="511.82,-423.88 511.50,-426.42 510.43,-428.07 508.62,-428.85 506.06,-428.75"/>
    </edge>
    <edge id=":J9_6" function="internal">
        <lane id=":J9_6_0" index="0" speed="13.89" length="21.07" shape="511.82,-423.88 512.14,-444.94"/>
        <lane id=":J9_6_1" index="1" speed="13.89" length="21.07" shape="515.02,-423.82 515.34,-444.90"/>
    </edge>

    <edge id="-E10" from="J5" to="J13" priority="-1">
        <lane id="-E10_0" index="0" speed="13.89" length="296.16" shape="-437.26,-88.86 -433.41,-385.00"/>
        <lane id="-E10_1" index="1" speed="13.89" length="296.16" shape="-434.06,-88.82 -430.21,-384.96"/>
    </edge>
    <edge id="-E12" from="J7" to="J14" priority="-1">
        <lane id="-E12_0" index="0" speed="13.89" length="350.39" shape="302.40,-86.77 50.39,-330.22"/>
        <lane id="-E12_1" index="1" speed="13.89" length="350.39" shape="304.62,-89.07 52.61,-332.52"/>
    </edge>
    <edge id="-E13" from="J14" to="J6" priority="-1">
        <lane id="-E13_0" index="0" speed="13.89" length="386.29" shape="27.93,-330.95 -272.04,-87.57"/>
        <lane id="-E13_1" index="1" speed="13.89" length="386.29" shape="25.91,-333.44 -274.06,-90.05"/>
    </edge>
    <edge id="-E14" from="J13" to="J14" priority="-1">
        <lane id="-E14_0" index="0" speed="13.89" length="440.57" shape="-417.02,-399.58 21.16,-353.73"/>
        <lane id="-E14_1" index="1" speed="13.89" length="440.57" shape="-417.35,-396.40 20.83,-350.54"/>
    </edge>
    <edge id="-E15" from="J9" to="J14" priority="-1">
        <lane id="-E15_0" index="0" speed="13.89" length="453.61" shape="506.06,-428.75 60.10,-345.79"/>
        <lane id="-E15_1" index="1" speed="13.89" length="453.61" shape="505.48,-431.89 59.51,-348.93"/>
    </edge>
    <edge id="-E16" from="J15" to="J6" priority="-1">
        <lane id="-E16_0" index="0" speed="13.89" length="299.74" shape="29.57,-71.69 -270.17,-72.59"/>
        <lane id="-E16_1" index="1" speed="13.89" length="299.74" shape="29.58,-74.89 -270.17,-75.79"/>
    </edge>
    <edge id="-E17" from="J7" to="J15" priority="-1">
        <lane id="-E17_0" index="0" speed="13.89" length="249.76" shape="300.16,-71.64 50.40,-71.66"/>
        <lane id="-E17_1" index="1" speed="13.89" length="249.76" shape="300.16,-74.84 50.40,-74.86"/>
    </edge>
    <edge id="-E18" from="J16" to="J12" priority="-1">
        <lane id="-E18_0" index="0" speed="13.89" length="230.71" shape="-187.39,-664.15 -418.08,-666.83"/>
        <lane id="-E18_1" index="1" speed="13.89" length="230.71" shape="-187.35,-667.35 -418.04,-670.03"/>
    </edge>
    <edge id="-E19" from="J17" to="J16" priority="-1">
        <lane id="-E19_0" index="0" speed="13.89" length="408.43" shape="244.61,-660.82 -163.80,-663.94"/>