<?xml version="1.0" encoding="UTF-8"?>

<!-- generated on 2024-06-20 02:53:22 by Eclipse SUMO netedit Version 1.20.0
<configuration xmlns:xsi="http://www.w3.org/2001/XMLSchema-instance" xsi:noNamespaceSchemaLocation="http://sumo.dlr.de/xsd/neteditConfiguration.xsd">

    <input>
        <sumocfg-file value="F:\Project\Thesis\Thesis\Sumo\traci\map5\map5.sumocfg"/>
        <route-files value="F:\Project\Thesis\Thesis\Sumo\traci\map5\trips.xml"/>
        <sumo-net-file value="F:\Project\Thesis\Thesis\Sumo\traci\map5\map5.net.xml"/>
    </input>

    <output>
        <output-file value="F:\Project\Thesis\Thesis\Sumo\traci\map5\map5.net.xml"/>
    </output>

    <processing>
        <geometry.min-radius.fix.railways value="false"/>
        <geometry.max-grade.fix value="false"/>
        <offset.disable-normalization value="true"/>
        <lefthand value="0"/>
    </processing>

    <junctions>
        <no-turnarounds value="true"/>
        <junctions.corner-detail value="5"/>
        <junctions.limit-turn-speed value="5.50"/>
        <rectangular-lane-cut value="0"/>
    </junctions>

    <pedestrian>
        <walkingareas value="0"/>
    </pedestrian>

</configuration>
-->

<net version="1.20" junctionCornerDetail="5" limitTurnSpeed="5.50" xmlns:xsi="http://www.w3.org/2001/XMLSchema-instance" xsi:noNamespaceSchemaLocation="http://sumo.dlr.de/xsd/net_file.xsd">

    <location netOffset="0.00,0.00" convBoundary="-243.34,-351.32,325.92,50.48" origBoundary="-10000000000.00,-10000000000.00,10000000000.00,10000000000.00" projParameter="!"/>

    <edge id=":J1_0" function="internal">
        <lane id=":J1_0_0" index="0" speed="8.97" length="17.39" shape="-228.58,51.57 -233.26,50.85 -236.66,48.81 -238.78,45.46 -239.62,40.81"/>
        <lane id=":J1_0_1" index="1" speed="7.67" length="12.42" shape="-228.54,48.37 -231.88,47.85 -234.31,46.40 -235.82,44.01 -236.42,40.68"/>
    </edge>
    <edge id=":J1_2" function="internal">
        <lane id=":J1_2_0" index="0" speed="3.91" length="2.48" shape="-230.03,40.44 -229.91,41.10 -229.60,41.58 -229.12,41.87 -228.45,41.97"/>
        <lane id=":J1_2_1" index="1" speed="6.08" length="7.45" shape="-233.23,40.56 -232.86,42.55 -231.95,43.99 -230.50,44.86 -228.49,45.17"/>
    </edge>
    <edge id=":J10_0" function="internal">
        <lane id=":J10_0_0" index="0" speed="7.04" length="12.73" shape="45.50,-113.78 42.82,-116.31 40.19,-117.17 37.59,-116.37 35.05,-113.89"/>
    </edge>
    <edge id=":J10_1" function="internal">
        <lane id=":J10_1_0" index="0" speed="13.89" length="24.68" shape="45.50,-113.78 41.03,-118.75 36.55,-122.22 31.41,-124.57 24.92,-126.16"/>
    </edge>
    <edge id=":J10_2" function="internal">
        <lane id=":J10_2_0" index="0" speed="13.89" length="27.64" shape="45.50,-113.78 41.25,-119.75 38.00,-126.04 35.93,-132.75 35.20,-139.96"/>
        <lane id=":J10_2_1" index="1" speed="13.89" length="27.64" shape="48.00,-115.78 43.86,-121.44 40.85,-127.05 39.02,-133.06 38.40,-139.96"/>
    </edge>
    <edge id=":J10_4" function="internal">
        <lane id=":J10_4_0" index="0" speed="8.81" length="24.03" shape="48.00,-115.78 44.29,-121.93 44.09,-126.76 47.41,-130.29 54.24,-132.50"/>
    </edge>
    <edge id=":J10_5" function="internal">
        <lane id=":J10_5_0" index="0" speed="5.70" length="9.21" shape="55.38,-126.20 52.76,-125.35 51.49,-124.00 51.56,-122.15 52.99,-119.79"/>
    </edge>
    <edge id=":J10_6" function="internal">
        <lane id=":J10_6_0" index="0" speed="13.89" length="24.48" shape="55.38,-126.20 48.90,-124.64 43.80,-122.36 39.40,-118.92 35.05,-113.89"/>
    </edge>
    <edge id=":J10_7" function="internal">
        <lane id=":J10_7_0" index="0" speed="13.89" length="30.03" shape="55.38,-126.20 47.85,-125.19 40.15,-124.84 32.45,-125.16 24.92,-126.16"/>
        <lane id=":J10_7_1" index="1" speed="13.89" length="30.03" shape="54.81,-129.35 47.46,-128.34 40.15,-127.99 32.85,-128.31 25.50,-129.31"/>
    </edge>
    <edge id=":J10_9" function="internal">
        <lane id=":J10_9_0" index="0" speed="9.50" length="7.39" shape="54.81,-129.35 47.63,-128.90 47.44,-128.96"/>
    </edge>
    <edge id=":J10_25" function="internal">
        <lane id=":J10_25_0" index="0" speed="9.50" length="15.83" shape="47.44,-128.96 42.50,-130.52 39.43,-134.20 38.40,-139.96"/>
    </edge>
    <edge id=":J10_10" function="internal">
        <lane id=":J10_10_0" index="0" speed="6.86" length="11.56" shape="44.80,-139.96 45.35,-137.47 47.02,-135.92 49.79,-135.31 53.67,-135.65"/>
    </edge>
    <edge id=":J10_11" function="internal">
        <lane id=":J10_11_0" index="0" speed="13.89" length="22.42" shape="44.80,-139.96 45.20,-133.69 46.54,-129.05 49.07,-124.83 52.99,-119.79"/>
    </edge>
    <edge id=":J10_12" function="internal">
        <lane id=":J10_12_0" index="0" speed="13.89" length="27.33" shape="44.80,-139.96 44.13,-132.79 42.20,-126.16 39.13,-119.91 35.05,-113.89"/>
        <lane id=":J10_12_1" index="1" speed="13.89" length="27.33" shape="41.60,-139.96 41.03,-133.09 39.33,-127.13 36.48,-121.55 32.50,-115.84"/>
    </edge>
    <edge id=":J10_14" function="internal">
        <lane id=":J10_14_0" index="0" speed="9.45" length="22.97" shape="41.60,-139.96 40.59,-134.20 37.57,-130.50 32.54,-128.87 25.50,-129.31"/>
    </edge>
    <edge id=":J10_15" function="internal">
        <lane id=":J10_15_0" index="0" speed="6.79" length="11.28" shape="26.65,-135.61 30.39,-135.29 33.06,-135.92 34.67,-137.47 35.20,-139.96"/>
    </edge>
    <edge id=":J10_16" function="internal">
        <lane id=":J10_16_0" index="0" speed="13.89" length="27.75" shape="26.65,-135.61 33.64,-134.60 40.16,-134.28 46.68,-134.63 53.67,-135.65"/>
        <lane id=":J10_16_1" index="1" speed="13.89" length="27.75" shape="26.07,-132.46 33.24,-131.46 40.15,-131.14 47.07,-131.49 54.24,-132.50"/>
    </edge>
    <edge id=":J10_18" function="internal">
        <lane id=":J10_18_0" index="0" speed="13.89" length="5.30" shape="26.07,-132.46 31.18,-131.05"/>
    </edge>
    <edge id=":J10_19" function="internal">
        <lane id=":J10_19_0" index="0" speed="8.81" length="3.97" shape="26.07,-132.46 29.85,-131.23"/>
    </edge>
    <edge id=":J10_26" function="internal">
        <lane id=":J10_26_0" index="0" speed="13.89" length="23.78" shape="31.18,-131.05 33.16,-130.50 39.62,-127.37 45.42,-123.12 50.49,-117.79"/>
    </edge>
    <edge id=":J10_27" function="internal">
        <lane id=":J10_27_0" index="0" speed="8.81" length="19.74" shape="29.85,-131.23 32.77,-130.27 36.07,-126.77 35.98,-121.96 32.50,-115.84"/>
    </edge>
    <edge id=":J10_20" function="internal">
        <lane id=":J10_20_0" index="0" speed="5.73" length="9.19" shape="27.42,-119.72 28.77,-122.09 28.80,-123.96 27.52,-125.31 24.92,-126.16"/>
    </edge>
    <edge id=":J10_21" function="internal">
        <lane id=":J10_21_0" index="0" speed="13.89" length="22.29" shape="27.42,-119.72 31.19,-124.83 33.58,-129.07 34.84,-133.70 35.20,-139.96"/>
    </edge>
    <edge id=":J10_22" function="internal">
        <lane id=":J10_22_0" index="0" speed="13.89" length="30.17" shape="27.42,-119.72 32.69,-125.31 39.13,-129.99 46.27,-133.52 53.67,-135.65"/>
        <lane id=":J10_22_1" index="1" speed="13.89" length="30.17" shape="29.96,-117.78 34.93,-123.18 40.68,-127.45 47.15,-130.56 54.24,-132.50"/>
    </edge>
    <edge id=":J10_24" function="internal">
        <lane id=":J10_24_0" index="0" speed="9.64" length="24.99" shape="29.96,-117.78 35.00,-122.69 40.10,-124.33 45.26,-122.70 50.49,-117.79"/>
    </edge>
    <edge id=":J2_0" function="internal">
        <lane id=":J2_0_0" index="0" speed="13.89" length="24.07" shape="-78.26,53.50 -102.34,53.29"/>
        <lane id=":J2_0_1" index="1" speed="13.89" length="24.07" shape="-78.24,50.30 -102.30,50.09"/>
    </edge>
    <edge id=":J2_2" function="internal">
        <lane id=":J2_2_0" index="0" speed="8.35" length="3.38" shape="-78.24,50.30 -81.54,49.55"/>
    </edge>
    <edge id=":J2_8" function="internal">
        <lane id=":J2_8_0" index="0" speed="8.35" length="19.84" shape="-81.54,49.55 -84.51,48.88 -88.17,45.21 -88.83,40.08 -86.12,34.24"/>
    </edge>
    <edge id=":J2_3" function="internal">
        <lane id=":J2_3_0" index="0" speed="5.56" length="9.41" shape="-81.03,38.13 -82.49,40.64 -82.51,42.44 -81.08,43.52 -78.20,43.90"/>
    </edge>
    <edge id=":J2_4" function="internal">
        <lane id=":J2_4_0" index="0" speed="13.89" length="24.01" shape="-83.57,36.18 -88.76,42.31 -93.61,46.67 -98.12,49.26 -102.30,50.09"/>
    </edge>
    <edge id=":J2_5" function="internal">
        <lane id=":J2_5_0" index="0" speed="12.37" length="18.11" shape="-102.21,43.69 -99.57,43.00 -96.42,40.88 -92.79,37.31 -88.66,32.30"/>
    </edge>
    <edge id=":J2_6" function="internal">
        <lane id=":J2_6_0" index="0" speed="13.89" length="24.03" shape="-102.21,43.69 -78.20,43.90"/>
        <lane id=":J2_6_1" index="1" speed="13.89" length="24.03" shape="-102.26,46.89 -78.22,47.10"/>
    </edge>
    <edge id=":J3_0" function="internal">
        <lane id=":J3_0_0" index="0" speed="13.89" length="24.59" shape="190.77,55.25 166.16,55.16"/>
        <lane id=":J3_0_1" index="1" speed="13.89" length="24.59" shape="190.75,52.05 166.18,51.96"/>
    </edge>
    <edge id=":J3_2" function="internal">
        <lane id=":J3_2_0" index="0" speed="13.89" length="3.55" shape="190.75,52.05 187.28,51.32"/>
    </edge>
    <edge id=":J3_8" function="internal">
        <lane id=":J3_8_0" index="0" speed="13.89" length="21.01" shape="187.28,51.32 186.60,51.17 182.00,48.52 176.96,44.08 171.47,37.86"/>
    </edge>
    <edge id=":J3_3" function="internal">
        <lane id=":J3_3_0" index="0" speed="12.94" length="18.89" shape="176.46,33.86 180.91,39.02 184.77,42.71 188.04,44.92 190.72,45.65"/>
    </edge>
    <edge id=":J3_4" function="internal">
        <lane id=":J3_4_0" index="0" speed="8.29" length="23.33" shape="173.96,35.86 176.77,41.65 176.13,46.84 172.46,50.56 166.18,51.96"/>
    </edge>
    <edge id=":J3_5" function="internal">
        <lane id=":J3_5_0" index="0" speed="5.53" length="9.48" shape="166.22,45.56 169.16,45.22 170.59,44.16 170.53,42.38 168.97,39.87"/>
    </edge>
    <edge id=":J3_6" function="internal">
        <lane id=":J3_6_0" index="0" speed="13.89" length="24.52" shape="166.22,45.56 190.72,45.65"/>
        <lane id=":J3_6_1" index="1" speed="13.89" length="24.52" shape="166.20,48.76 190.74,48.85"/>
    </edge>
    <edge id=":J4_0" function="internal">
        <lane id=":J4_0_0" index="0" speed="8.96" length="17.86" shape="327.53,43.60 326.79,48.43 324.68,51.88 321.21,53.97 316.38,54.68"/>
        <lane id=":J4_0_1" index="1" speed="7.66" length="12.76" shape="324.33,43.57 323.80,47.01 322.30,49.48 319.82,50.97 316.37,51.48"/>
    </edge>
    <edge id=":J4_2" function="internal">
        <lane id=":J4_2_0" index="0" speed="3.91" length="2.55" shape="316.34,45.08 317.03,44.98 317.52,44.68 317.82,44.19 317.93,43.50"/>
        <lane id=":J4_2_1" index="1" speed="6.08" length="7.65" shape="316.35,48.28 318.42,47.97 319.91,47.08 320.81,45.60 321.13,43.53"/>
    </edge>
    <edge id=":J5_0" function="internal">
        <lane id=":J5_0_0" index="0" speed="13.89" length="21.09" shape="330.03,-189.30 329.86,-168.20"/>
        <lane id=":J5_0_1" index="1" speed="13.89" length="21.09" shape="326.83,-189.31 326.66,-168.23"/>
    </edge>
    <edge id=":J5_2" function="internal">
        <lane id=":J5_2_0" index="0" speed="10.13" length="4.42" shape="326.83,-189.31 326.08,-184.96"/>
    </edge>
    <edge id=":J5_8" function="internal">
        <lane id=":J5_8_0" index="0" speed="10.13" length="15.69" shape="326.08,-184.96 326.01,-184.51 323.58,-180.74 319.55,-178.02 313.91,-176.33"/>
    </edge>
    <edge id=":J5_3" function="internal">
        <lane id=":J5_3_0" index="0" speed="7.67" length="11.13" shape="312.77,-182.63 316.11,-183.57 318.50,-185.00 319.94,-186.92 320.43,-189.34"/>
    </edge>
    <edge id=":J5_4" function="internal">
        <lane id=":J5_4_0" index="0" speed="9.00" length="20.88" shape="313.34,-179.48 319.23,-179.69 323.41,-177.89 325.88,-174.07 326.66,-168.23"/>
    </edge>
    <edge id=":J5_5" function="internal">
        <lane id=":J5_5_0" index="0" speed="6.13" length="9.06" shape="320.26,-168.30 319.92,-170.83 318.85,-172.49 317.04,-173.27 314.48,-173.18"/>
    </edge>
    <edge id=":J5_6" function="internal">
        <lane id=":J5_6_0" index="0" speed="13.89" length="21.05" shape="320.26,-168.30 320.43,-189.34"/>
        <lane id=":J5_6_1" index="1" speed="13.89" length="21.05" shape="323.46,-168.27 323.63,-189.33"/>
    </edge>
    <edge id=":J6_0" function="internal">
        <lane id=":J6_0_0" index="0" speed="8.96" length="18.09" shape="319.52,-355.50 324.42,-354.79 327.92,-352.68 330.01,-349.17 330.69,-344.26"/>
        <lane id=":J6_0_1" index="1" speed="7.66" length="12.92" shape="319.51,-352.30 323.02,-351.80 325.51,-350.29 327.01,-347.78 327.49,-344.27"/>
    </edge>
    <edge id=":J6_2" function="internal">
        <lane id=":J6_2_0" index="0" speed="3.90" length="2.58" shape="321.09,-344.30 321.00,-345.00 320.70,-345.50 320.20,-345.80 319.50,-345.90"/>
        <lane id=":J6_2_1" index="1" speed="6.08" length="7.75" shape="324.29,-344.28 324.00,-346.39 323.11,-347.89 321.61,-348.80 319.50,-349.10"/>
    </edge>
    <edge id=":J7_0" function="internal">
        <lane id=":J7_0_0" index="0" speed="6.49" length="9.03" shape="35.20,-340.86 34.85,-343.32 33.80,-345.06 32.04,-346.10 29.59,-346.43"/>
    </edge>
    <edge id=":J7_1" function="internal">
        <lane id=":J7_1_0" index="0" speed="9.26" length="19.40" shape="38.40,-340.86 39.15,-346.14 41.40,-349.90 45.16,-352.15 50.42,-352.90"/>
    </edge>
    <edge id=":J7_2" function="internal">
        <lane id=":J7_2_0" index="0" speed="6.51" length="9.07" shape="50.40,-346.50 47.95,-346.15 46.20,-345.09 45.15,-343.33 44.80,-340.86"/>
    </edge>
    <edge id=":J7_3" function="internal">
        <lane id=":J7_3_0" index="0" speed="13.89" length="20.84" shape="50.40,-346.50 29.59,-346.43"/>
        <lane id=":J7_3_1" index="1" speed="13.89" length="20.84" shape="50.41,-349.70 29.56,-349.63"/>
    </edge>
    <edge id=":J7_5" function="internal">
        <lane id=":J7_5_0" index="0" speed="13.89" length="20.91" shape="29.50,-356.03 50.42,-356.10"/>
        <lane id=":J7_5_1" index="1" speed="13.89" length="20.91" shape="29.53,-352.83 50.42,-352.90"/>
    </edge>
    <edge id=":J7_7" function="internal">
        <lane id=":J7_7_0" index="0" speed="9.24" length="5.16" shape="29.53,-352.83 34.64,-352.14"/>
    </edge>
    <edge id=":J7_8" function="internal">
        <lane id=":J7_8_0" index="0" speed="9.24" length="14.26" shape="34.64,-352.14 34.81,-352.12 38.58,-349.89 40.85,-346.14 41.60,-340.86"/>
    </edge>
    <edge id=":J8_0" function="internal">
        <lane id=":J8_0_0" index="0" speed="8.96" length="17.95" shape="-248.14,-342.46 -247.45,-347.32 -245.36,-350.81 -241.90,-352.92 -237.04,-353.66"/>
        <lane id=":J8_0_1" index="1" speed="7.66" length="12.82" shape="-244.94,-342.46 -244.44,-345.93 -242.96,-348.42 -240.48,-349.93 -237.01,-350.46"/>
    </edge>
    <edge id=":J8_2" function="internal">
        <lane id=":J8_2_0" index="0" speed="3.90" length="2.56" shape="-236.95,-344.06 -237.65,-343.95 -238.14,-343.65 -238.44,-343.15 -238.54,-342.46"/>
        <lane id=":J8_2_1" index="1" speed="6.08" length="7.69" shape="-236.98,-347.26 -239.06,-346.94 -240.55,-346.04 -241.44,-344.54 -241.74,-342.46"/>
    </edge>
    <edge id=":J9_0" function="internal">
        <lane id=":J9_0_0" index="0" speed="13.89" length="21.44" shape="-247.67,-167.84 -248.14,-189.34"/>
        <lane id=":J9_0_1" index="1" speed="13.89" length="21.44" shape="-244.48,-167.97 -244.94,-189.34"/>
    </edge>
    <edge id=":J9_2" function="internal">
        <lane id=":J9_2_0" index="0" speed="8.97" length="5.62" shape="-244.48,-167.97 -243.89,-173.56"/>
    </edge>
    <edge id=":J9_8" function="internal">
        <lane id=":J9_8_0" index="0" speed="8.97" length="15.51" shape="-243.89,-173.56 -243.85,-173.92 -241.44,-177.81 -237.25,-179.65 -231.27,-179.42"/>
    </edge>
    <edge id=":J9_3" function="internal">
        <lane id=":J9_3_0" index="0" speed="6.08" length="9.06" shape="-232.41,-173.13 -234.98,-173.22 -236.78,-172.44 -237.81,-170.77 -238.08,-168.21"/>
    </edge>
    <edge id=":J9_4" function="internal">
        <lane id=":J9_4_0" index="0" speed="10.17" length="20.31" shape="-231.84,-176.27 -237.57,-177.99 -241.67,-180.74 -244.12,-184.52 -244.94,-189.34"/>
    </edge>
    <edge id=":J9_5" function="internal">
        <lane id=":J9_5_0" index="0" speed="7.72" length="11.32" shape="-238.54,-189.34 -238.05,-186.91 -236.58,-184.98 -234.12,-183.53 -230.69,-182.57"/>
    </edge>
    <edge id=":J9_6" function="internal">
        <lane id=":J9_6_0" index="0" speed="13.89" length="21.19" shape="-238.54,-189.34 -238.08,-168.21"/>
        <lane id=":J9_6_1" index="1" speed="13.89" length="21.19" shape="-241.74,-189.34 -241.28,-168.09"/>
    </edge>

    <edge id="-E0" from="J2" to="J1" priority="-1">
        <lane id="-E0_0" index="0" speed="13.89" length="126.25" shape="-102.34,53.29 -228.58,51.57"/>
        <lane id="-E0_1" index="1" speed="13.89" length="126.25" shape="-102.30,50.09 -228.54,48.37"/>
    </edge>
    <edge id="-E1" from="J3" to="J2" priority="-1">
        <lane id="-E1_0" index="0" speed="13.89" length="244.43" shape="166.16,55.16 -78.26,53.50"/>
        <lane id="-E1_1" index="1" speed="13.89" length="244.43" shape="166.18,51.96 -78.24,50.30"/>
    </edge>
    <edge id="-E10" from="J5" to="J10" priority="-1">
        <lane id="-E10_0" index="0" speed="13.89" length="263.33" shape="314.48,-173.18 55.38,-126.20"/>
        <lane id="-E10_1" index="1" speed="13.89" length="263.33" shape="313.91,-176.33 54.81,-129.35"/>
    </edge>
    <edge id="-E11" from="J10" to="J7" priority="-1">
        <lane id="-E11_0" index="0" speed="13.89" length="200.90" shape="35.20,-139.96 35.20,-340.86"/>
        <lane id="-E11_1" index="1" speed="13.89" length="200.90" shape="38.40,-139.96 38.40,-340.86"/>
    </edge>
    <edge id="-E12" from="J2" to="J10" priority="-1">
        <lane id="-E12_0" index="0" speed="13.89" length="191.27" shape="-88.66,32.30 27.42,-119.72"/>
        <lane id="-E12_1" index="1" speed="13.89" length="191.27" shape="-86.12,34.24 29.96,-117.78"/>
    </edge>
    <edge id="-E13" from="J3" to="J10" priority="-1">
        <lane id="-E13_0" index="0" speed="13.89" length="197.11" shape="168.97,39.87 45.50,-113.78"/>
        <lane id="-E13_1" index="1" speed="13.89" length="197.11" shape="171.47,37.86 48.00,-115.78"/>
    </edge>
    <edge id="-E2" from="J4" to="J3" priority="-1">
        <lane id="-E2_0" index="0" speed="13.89" length="125.61" shape="316.38,54.68 190.77,55.25"/>
        <lane id="-E2_1" index="1" speed="13.89" length="125.61" shape="316.37,51.48 190.75,52.05"/>
    </edge>
    <edge id="-E3" from="J5" to="J4" priority="-1">
        <lane id="-E3_0" index="0" speed="13.89" length="211.81" shape="329.86,-168.20 327.53,43.60"/>
        <lane id="-E3_1" index="1" speed="13.89" length="211.81" shape="326.66,-168.23 324.33,43.57"/>
    </edge>
    <edge id="-E4" from="J6" to="J5" priority="-1">
        <lane id="-E4_0" index="0" speed="13.89" length="154.96" shape="330.69,-344.26 330.03,-189.30"/>
        <lane id="-E4_1" index="1" speed="13.89" length="154.96" shape="327.49,-344.27 326.83,-189.31"/>
    </edge>
    <edge id="-E5" from="J7" to="J6" priority="-1">
        <lane id="-E5_0" index="0" speed="13.89" length="269.09" shape="50.42,-356.10 319.52,-355.50"/>
        <lane id="-E5_1" index="1" speed="13.89" length="269.09" shape="50.42,-352.90 319.51,-352.30"/>
    </edge>
    <edge id="-E6" from="J8" to="J7" priority="-1">
        <lane id="-E6_0" index="0" speed="13.89" length="266.55" shape="-237.04,-353.66 29.50,-356.03"/>
        <lane id="-E6_1" index="1" speed="13.89" length="266.55" shape="-237.01,-350.46 29.53,-352.83"/>
    </edge>
    <edge id="-E7" from="J9" to="J8" priority="-1">
        <lane id="-E7_0" index="0" speed="13.89" length="153.12" shape="-248.14,-189.34 -248.14,-342.46"/>
        <lane id="-E7_1" index="1" speed="13.89" length="153.12" shape="-244.94,-189.34 -244.94,-342.46"/>
    </edge>
    <edge id="-E8" from="J1" to="J9" priority="-1">
        <lane id="-E8_0" index="0" speed="13.89" length="208.80" shape="-239.62,40.81 -247.67,-167.84"/>
        <lane id="-E8_1" index="1" speed="13.89" length="208.80" shape="-236.42,40.68 -244.48,-167.97"/>
    </edge>
    <edge id="-E9" from="J10" to="J9" priority="-1">
        <lane id="-E9_0" index="0" speed="13.89" length="261.59" shape="24.92,-126.16 -232.41,-173.13"/>
        <lane id="-E9_1" index="1" speed="13.89" length="261.59" shape="25.50,-129.31 -231.84,-176.27"/>
    </edge>
    <edge id="E0" from="J1" to="J2" priority="-1">
        <lane id="E0_0" index="0" speed="13.89" length="126.25" shape="-228.45,41.97 -102.21,43.69"/>
        <lane id="E0_1" index="1" speed="13.89" length="126.25" shape="-228.49,45.17 -102.26,46.89"/>
    </edge>
    <edge id="E1" from="J2" to="J3" priority="-1">
        <lane id="E1_0" index="0" speed="13.89" length="244.43" shape="-78.20,43.90 166.22,45.56"/>
        <lane id="E1_1" index="1" speed="13.89" length="244.43" shape="-78.22,47.10 166.20,48.76"/>
    </edge>
    <edge id="E10" from="J10" to="J5" priority="-1">
        <lane id="E10_0" index="0" speed="13.89" length="263.33" shape="53.67,-135.65 312.77,-182.63"/>
        <lane id="E10_1" index="1" speed="13.89" length="263.33" shape="54.24,-132.50 313.34,-179.48"/>
    </edge>
    <edge id="E11" from="J7" to="J10" priority="-1">
        <lane id="E11_0" index="0" speed="13.89" length="200.90" shape="44.80,-340.86 44.80,-139.96"/>
        <lane id="E11_1" index="1" speed="13.89" length="200.90" shape="41.60,-340.86 41.60,-139.96"/>
    </edge>
    <edge id="E12" from="J10" to="J2" priority="-1">
        <lane id="E12_0" index="0" speed="13.89" length="191.27" shape="35.05,-113.89 -81.03,38.13"/>
        <lane id="E12_1" index="1" speed="13.89" length="191.27" shape="32.50,-115.84 -83.57,36.18"/>
    </edge>
    <edge id="E13" from="J10" to="J3" priority="-1">
        <lane id="E13_0" index="0" speed="13.89" length="197.11" shape="52.99,-119.79 176.46,33.86"/>
        <lane id="E13_1" index="1" speed="13.89" length="197.11" shape="50.49,-117.79 173.96,35.86"/>
    </edge>
    <edge id="E2" from="J3" to="J4" priority="-1">
        <lane id="E2_0" index="0" speed="13.89" length="125.61" shape="190.72,45.65 316.34,45.08"/>
        <lane id="E2_1" index="1" speed="13.89" length="125.61" shape="190.74,48.85 316.35,48.28"/>
    </edge>
    <edge id="E3" from="J4" to="J5" priority="-1">
        <lane id="E3_0" index="0" speed="13.89" length="211.81" shape="317.93,43.50 320.26,-168.30"/>
        <lane id="E3_1" index="1" speed="13.89" length="211.81" shape="321.13,43.53 323.46,-168.27"/>
    </edge>
    <edge id="E4" from="J5" to="J6" priority="-1">
        <lane id="E4_0" index="0" speed="13.89" length="154.96" shape="320.43,-189.34 321.09,-344.30"/>
        <lane id="E4_1" index="1" speed="13.89" length="154.96" shape="323.63,-189.33 324.29,-344.28"/>
    </edge>
    <edge id="E5" from="J6" to="J7" priority="-1">
        <lane id="E5_0" index="0" speed="13.89" length="269.09" shape="319.50,-345.90 50.40,-346.50"/>
        <lane id="E5_1" index="1" speed="13.89" length="269.09" shape="319.50,-349.10 50.41,-349.70"/>
    </edge>
    <edge id="E6" from="J7" to="J8" priority="-1">
        <lane id="E6_0" index="0" speed="13.89" length="266.55" shape="29.59,-346.43 -236.95,-344.06"/>
        <lane id="E6_1" index="1" speed="13.89" length="266.55" shape="29.56,-349.63 -236.98,-347.26"/>
    </edge>
    <edge id="E7" from="J8" to="J9" priority="-1">
        <lane id="E7_0" index="0" speed="13.89" length="153.12" shape="-238.54,-342.46 -238.54,-189.34"/>
        <lane id="E7_1" index="1" speed="13.89" length="153.12" shape="-241.74,-342.46 -241.74,-189.34"/>
    </edge>
    <edge id="E8" from="J9" to="J1" priority="-1">
        <lane id="E8_0" index="0" speed="13.89" length="208.80" shape="-238.08,-168.21 -230.03,40.44"/>
        <lane id="E8_1" index="1" speed="13.89" length="208.80" shape="-241.28,-168.09 -233.23,40.56"/>
    </edge>
    <edge id="E9" from="J9" to="J10" priority="-1">
        <lane id="E9_0" index="0" speed="13.89" length="261.59" shape="-230.69,-182.57 26.65,-135.61"/>
        <lane id="E9_1" index="1" speed="13.89" length="261.59" shape="-231.27,-179.42 26.07,-132.46"/>
    </edge>

    <tlLogic id="J10" type="static" programID="0" offset="0">
        <phase duration="32" state="rrrrrGGGGgrrrrrGGGggrrrrr"/>
        <phase duration="3"  state="rrrrryyyygrrrrryyyggrrrrr"/>
        <phase duration="6"  state="rrrrrrrrrGrrrrrrrrGGrrrrr"/>
        <phase duration="3"  state="rrrrrrrrryrrrrrrrryyrrrrr"/>
        <phase duration="32" state="rrrrrrrrrrGGGGGGrrrrrrrrr"/>
        <phase duration="3"  state="rrrrrrrrrryyyyyyrrrrrrrrr"/>
        <phase duration="32" state="GGGGGGrrrrrrrrrrrrrrrrrrr"/>
        <phase duration="3"  state="Gyyyyyrrrrrrrrrrrrrrrrrrr"/>
        <phase duration="32" state="GrrrrrrrrrrrrrrrrrrrGGGGG"/>
        <phase duration="3"  state="yrrrrrrrrrrrrrrrrrrryyyyy"/>
    </tlLogic>

    <junction id="J1" type="priority" x="-234.59" y="46.69" incLanes="-E0_0 -E0_1 E8_0 E8_1" intLanes=":J1_0_0 :J1_0_1 :J1_2_0 :J1_2_1" shape="-228.60,53.17 -228.43,40.37 -241.22,40.87 -240.74,44.58 -239.61,47.63 -237.83,50.01 -235.40,51.73 -232.33,52.78">
        <request index="0" response="0000" foes="0000" cont="0"/>
        <request index="1" response="0000" foes="0000" cont="0"/>
        <request index="2" response="0000" foes="0000" cont="0"/>
        <request index="3" response="0000" foes="0000" cont="0"/>
    </junction>
    <junction id="J10" type="traffic_light" x="40.00" y="-128.29" incLanes="-E13_0 -E13_1 -E10_0 -E10_1 E11_0 E11_1 E9_0 E9_1 -E12_0 -E12_1" intLanes=":J10_0_0 :J10_1_0 :J10_2_0 :J10_2_1 :J10_4_0 :J10_5_0 :J10_6_0 :J10_7_0 :J10_7_1 :J10_25_0 :J10_10_0 :J10_11_0 :J10_12_0 :J10_12_1 :J10_14_0 :J10_15_0 :J10_16_0 :J10_16_1 :J10_26_0 :J10_27_0 :J10_20_0 :J10_21_0 :J10_22_0 :J10_22_1 :J10_24_0" shape="44.26,-112.78 54.23,-120.79 53.28,-122.61 53.34,-123.31 53.76,-123.88 54.53,-124.32 55.66,-124.63 53.38,-137.22 51.25,-136.95 49.50,-136.96 48.15,-137.27 47.18,-137.88 46.59,-138.77 46.40,-139.96 33.60,-139.96 32.86,-137.88 31.93,-137.27 30.64,-136.95 28.97,-136.92 26.94,-137.18 24.64,-124.59 26.55,-123.84 26.98,-123.25 27.06,-122.54 26.78,-121.68 26.14,-120.69 36.32,-112.92 38.89,-115.12 40.21,-115.38 41.54,-115.08 42.89,-114.21">
        <request index="0"  response="0000000000011000001000000" foes="0000000000011000001000000" cont="0"/>
        <request index="1"  response="1111110000011000111000000" foes="1111110000011000111000000" cont="0"/>
        <request index="2"  response="0110001111000001111000000" foes="1111001111111001111000000" cont="0"/>
        <request index="3"  response="0110001111000001111000000" foes="1111001111111001111000000" cont="0"/>
        <request index="4"  response="1110001110000101111000000" foes="1110001110000101111000000" cont="0"/>
        <request index="5"  response="0000000000000000000000000" foes="0000000000000100000000000" cont="0"/>
        <request index="6"  response="0000000000000000000000000" foes="1000001000011100000011111" cont="0"/>
        <request index="7"  response="0000000000000000000000000" foes="0111111000111100000011110" cont="0"/>
        <request index="8"  response="0000000000000000000000000" foes="0111111000111100000011110" cont="0"/>
        <request index="9"  response="0000000110000000000000000" foes="0110000110111100000011100" cont="1"/>
        <request index="10" response="0110000110000000000000000" foes="0110000110000000000000000" cont="0"/>
        <request index="11" response="0110000110000001111100000" foes="0110000110000001111110000" cont="0"/>
        <request index="12" response="0000011110000001111001100" foes="1110011110000001111001111" cont="0"/>
        <request index="13" response="0000011110000001111001100" foes="1110011110000001111001111" cont="0"/>
        <request index="14" response="0001011110000001110001100" foes="0001011110000001110001100" cont="0"/>
        <request index="15" response="0000000000000000000000000" foes="0001000000000000000001100" cont="0"/>
        <request index="16" response="0000000000000000000000000" foes="0111000000111111000011100" cont="0"/>
        <request index="17" response="0000000000000000000000000" foes="0111000000111111000011100" cont="0"/>
        <request index="18" response="0000000000000000111000000" foes="1111000000111000111011100" cont="1"/>
        <request index="19" response="0000000000000000110000000" foes="1111000000111000110000010" cont="1"/>
        <request index="20" response="0000000000000000110000000" foes="0000000000000000110000010" cont="0"/>
        <request index="21" response="0000011111000000110001100" foes="0000011111100000110001110" cont="0"/>
        <request index="22" response="0000011110011001110000000" foes="0000011110011111110011110" cont="0"/>
        <request index="23" response="0000011110011001110000000" foes="0000011110011111110011110" cont="0"/>
        <request index="24" response="0000011000011000001001100" foes="0000011000011000001011110" cont="0"/>
    </junction>
    <junction id="J2" type="priority" x="-95.06" y="48.59" incLanes="-E1_0 -E1_1 E12_0 E12_1 E0_0 E0_1" intLanes=":J2_0_0 :J2_0_1 :J2_8_0 :J2_3_0 :J2_4_0 :J2_5_0 :J2_6_0 :J2_6_1" shape="-78.27,55.10 -78.19,42.30 -80.14,41.94 -80.58,41.49 -80.66,40.87 -80.39,40.07 -79.76,39.10 -89.93,31.33 -92.57,34.63 -94.97,37.33 -97.13,39.43 -99.05,40.92 -100.74,41.81 -102.19,42.09 -102.37,54.89">
        <request index="0" response="00000000" foes="00010000" cont="0"/>
        <request index="1" response="00000000" foes="00010000" cont="0"/>