<?xml version="1.0" encoding="UTF-8"?>

<!-- generated on 2024-06-20 00:15:56.913331 by randomTrips.py v1_20_0+0002-343658e7c64
<configuration>
    <net-file value="F:\Project\Thesis\Thesis\Sumo\traci\new\new.net.xml"/>
    <output-trip-file value="F:\Project\Thesis\Thesis\Sumo\traci\new\bus.trips.xml"/>
    <prefix value="bus"/>
    <vehicle-class value="bus"/>
</configuration>
-->

<routes xmlns:xsi="http://www.w3.org/2001/XMLSchema-instance" xsi:noNamespaceSchemaLocation="http://sumo.dlr.de/xsd/routes_file.xsd">
   <vType id="bus_bus" vClass="bus"/>
    <vType id="car_passenger" vClass="passenger"/>
    <vType id="motorcycle_motorcycle" vClass="motorcycle"/>
    <vType id="truck_truck" vClass="truck"/>
    <trip id="bus0" depart="0.00" from="E28" to="-E11" type="bus_bus"/>
    <trip id="car0" depart="0.00" from="E28" to="-E11" type="car_passenger"/>
    <trip id="motorcycle0" depart="0.00" from="E28" to="-E11" type="motorcycle_motorcycle"/>
    <trip id="truck0" depart="0.00" from="E28" to="-E11" type="truck_truck"/>
    <trip id="bus1" depart="1.00" from="-E50" to="-E43" type="bus_bus"/>
    <trip id="car1" depart="1.00" from="-E50" to="-E43" type="car_passenger"/>
    <trip id="motorcycle1" depart="1.00" from="-E50" to="-E43" type="motorcycle_motorcycle"/>
    <trip id="truck1" depart="1.00" from="-E50" to="-E43" type="truck_truck"/>
    <trip id="bus2" depart="2.00" from="E45" to="E37" type="bus_bus"/>
    <trip id="car2" depart="2.00" from="E45" to="E37" type="car_passenger"/>
    <trip id="motorcycle2" depart="2.00" from="E45" to="E37" type="motorcycle_motorcycle"/>
    <trip id="truck2" depart="2.00" from="E45" to="E37" type="truck_truck"/>
    <trip id="bus3" depart="3.00" from="E7" to="-E20" type="bus_bus"/>
    <trip id="car3" depart="3.00" from="E7" to="-E20" type="car_passenger"/>
    <trip id="motorcycle3" depart="3.00" from="E7" to="-E20" type="motorcycle_motorcycle"/>
    <trip id="truck3" depart="3.00" from="E7" to="-E20" type="truck_truck"/>
    <trip id="bus4" depart="4.00" from="-E74" to="-E12" type="bus_bus"/>
    <trip id="car4" depart="4.00" from="-E74" to="-E12" type="car_passenger"/>
    <trip id="motorcycle4" depart="4.00" from="-E74" to="-E12" type="motorcycle_motorcycle"/>
    <trip id="truck4" depart="4.00" from="-E74" to="-E12" type="truck_truck"/>
    <trip id="bus5" depart="5.00" from="-E43" to="E0" type="bus_bus"/>
    <trip id="car5" depart="5.00" from="-E43" to="E0" type="car_passenger"/>
    <trip id="motorcycle5" depart="5.00" from="-E43" to="E0" type="motorcycle_motorcycle"/>
    <trip id="truck5" depart="5.00" from="-E43" to="E0" type="truck_truck"/>
    <trip id="bus6" depart="6.00" from="-E12" to="-E40" type="bus_bus"/>
    <trip id="car6" depart="6.00" from="-E12" to="-E40" type="car_passenger"/>
    <trip id="motorcycle6" depart="6.00" from="-E12" to="-E40" type="motorcycle_motorcycle"/>
    <trip id="truck6" depart="6.00" from="-E12" to="-E40" type="truck_truck"/>
    <trip id="bus7" depart="7.00" from="E29" to="E14" type="bus_bus"/>
    <trip id="car7" depart="7.00" from="E29" to="E14" type="car_passenger"/>
    <trip id="motorcycle7" depart="7.00" from="E29" to="E14" type="motorcycle_motorcycle"/>
    <trip id="truck7" depart="7.00" from="E29" to="E14" type="truck_truck"/>
    <trip id="bus8" depart="8.00" from="-E43" to="E20" type="bus_bus"/>
    <trip id="car8" depart="8.00" from="-E43" to="E20" type="car_passenger"/>
    <trip id="motorcycle8" depart="8.00" from="-E43" to="E20" type="motorcycle_motorcycle"/>
    <trip id="truck8" depart="8.00" from="-E43" to="E20" type="truck_truck"/>
    <trip id="bus9" depart="9.00" from="E56" to="-E0" type="bus_bus"/>
    <trip id="car9" depart="9.00" from="E56" to="-E0" type="car_passenger"/>
    <trip id="motorcycle9" depart="9.00" from="E56" to="-E0" type="motorcycle_motorcycle"/>
    <trip id="truck9" depart="9.00" from="E56" to="-E0" type="truck_truck"/>
    <trip id="bus10" depart="10.00" from="E55" to="E40" type="bus_bus"/>
    <trip id="car10" depart="10.00" from="E55" to="E40" type="car_passenger"/>
    <trip id="motorcycle10" depart="10.00" from="E55" to="E40" type="motorcycle_motorcycle"/>
    <trip id="truck10" depart="10.00" from="E55" to="E40" type="truck_truck"/>
    <trip id="bus11" depart="11.00" from="-E62" to="-E3" type="bus_bus"/>
    <trip id="car11" depart="11.00" from="-E62" to="-E3" type="car_passenger"/>
    <trip id="motorcycle11" depart="11.00" from="-E62" to="-E3" type="motorcycle_motorcycle"/>
    <trip id="truck11" depart="11.00" from="-E62" to="-E3" type="truck_truck"/>
    <trip id="bus12" depart="12.00" from="E79" to="-E62" type="bus_bus"/>
    <trip id="car12" depart="12.00" from="E79" to="-E62" type="car_passenger"/>
    <trip id="motorcycle12" depart="12.00" from="E79" to="-E62" type="motorcycle_motorcycle"/>
    <trip id="truck12" depart="12.00" from="E79" to="-E62" type="truck_truck"/>
    <trip id="bus13" depart="13.00" from="-E21" to="-E21" type="bus_bus"/>
    <trip id="car13" depart="13.00" from="-E21" to="-E21" type="car_passenger"/>
    <trip id="motorcycle13" depart="13.00" from="-E21" to="-E21" type="motorcycle_motorcycle"/>
    <trip id="truck13" depart="13.00" from="-E21" to="-E21" type="truck_truck"/>
    <trip id="bus14" depart="14.00" from="E63" to="E22" type="bus_bus"/>
    <trip id="car14" depart="14.00" from="E63" to="E22" type="car_passenger"/>
    <trip id="motorcycle14" depart="14.00" from="E63" to="E22" type="motorcycle_motorcycle"/>
    <trip id="truck14" depart="14.00" from="E63" to="E22" type="truck_truck"/>
    <trip id="bus15" depart="15.00" from="E55" to="E44" type="bus_bus"/>
    <trip id="car15" depart="15.00" from="E55" to="E44" type="car_passenger"/>
    <trip id="motorcycle15" depart="15.00" from="E55" to="E44" type="motorcycle_motorcycle"/>
    <trip id="truck15" depart="15.00" from="E55" to="E44" type="truck_truck"/>
    <trip id="bus16" depart="16.00" from="E13" to="E80" type="bus_bus"/>
    <trip id="car16" depart="16.00" from="E13" to="E80" type="car_passenger"/>
    <trip id="motorcycle16" depart="16.00" from="E13" to="E80" type="motorcycle_motorcycle"/>
    <trip id="truck16" depart="16.00" from="E13" to="E80" type="truck_truck"/>
    <trip id="bus17" depart="17.00" from="-E68" to="E15" type="bus_bus"/>
    <trip id="car17" depart="17.00" from="-E68" to="E15" type="car_passenger"/>
    <trip id="motorcycle17" depart="17.00" from="-E68" to="E15" type="motorcycle_motorcycle"/>
    <trip id="truck17" depart="17.00" from="-E68" to="E15" type="truck_truck"/>
    <trip id="bus18" depart="18.00" from="E61" to="E25" type="bus_bus"/>
    <trip id="car18" depart="18.00" from="E61" to="E25" type="car_passenger"/>
    <trip id="motorcycle18" depart="18.00" from="E61" to="E25" type="motorcycle_motorcycle"/>
    <trip id="truck18" depart="18.00" from="E61" to="E25" type="truck_truck"/>
    <trip id="bus19" depart="19.00" from="E65" to="E19" type="bus_bus"/>
    <trip id="car19" depart="19.00" from="E65" to="E19" type="car_passenger"/>
    <trip id="motorcycle19" depart="19.00" from="E65" to="E19" type="motorcycle_motorcycle"/>
    <trip id="truck19" depart="19.00" from="E65" to="E19" type="truck_truck"/>
    <trip id="bus20" depart="20.00" from="E41" to="-E14" type="bus_bus"/>
    <trip id="car20" depart="20.00" from="E41" to="-E14" type="car_passenger"/>
    <trip id="motorcycle20" depart="20.00" from="E41" to="-E14" type="motorcycle_motorcycle"/>
    <trip id="truck20" depart="20.00" from="E41" to="-E14" type="truck_truck"/>
    <trip id="bus21" depart="21.00" from="-E44" to="-E52" type="bus_bus"/>
    <trip id="car21" depart="21.00" from="-E44" to="-E52" type="car_passenger"/>
    <trip id="motorcycle21" depart="21.00" from="-E44" to="-E52" type="motorcycle_motorcycle"/>
    <trip id="truck21" depart="21.00" from="-E44" to="-E52" type="truck_truck"/>
    <trip id="bus22" depart="22.00" from="-E2" to="-E45" type="bus_bus"/>
    <trip id="car22" depart="22.00" from="-E2" to="-E45" type="car_passenger"/>
    <trip id="motorcycle22" depart="22.00" from="-E2" to="-E45" type="motorcycle_motorcycle"/>
    <trip id="truck22" depart="22.00" from="-E2" to="-E45" type="truck_truck"/>
    <trip id="bus23" depart="23.00" from="-E22" to="-E51" type="bus_bus"/>
    <trip id="car23" depart="23.00" from="-E22" to="-E51" type="car_passenger"/>
    <trip id="motorcycle23" depart="23.00" from="-E22" to="-E51" type="motorcycle_motorcycle"/>
    <trip id="truck23" depart="23.00" from="-E22" to="-E51" type="truck_truck"/>
    <trip id="bus24" depart="24.00" from="E27" to="-E66" type="bus_bus"/>
    <trip id="car24" depart="24.00" from="E27" to="-E66" type="car_passenger"/>
    <trip id="motorcycle24" depart="24.00" from="E27" to="-E66" type="motorcycle_motorcycle"/>
    <trip id="truck24" depart="24.00" from="E27" to="-E66" type="truck_truck"/>
    <trip id="bus25" depart="25.00" from="-E67" to="-E41" type="bus_bus"/>
    <trip id="car25" depart="25.00" from="-E67" to="-E41" type="car_passenger"/>
    <trip id="motorcycle25" depart="25.00" from="-E67" to="-E41" type="motorcycle_motorcycle"/>
    <trip id="truck25" depart="25.00" from="-E67" to="-E41" type="truck_truck"/>
    <trip id="bus26" depart="26.00" from="-E5" to="E76" type="bus_bus"/>
    <trip id="car26" depart="26.00" from="-E5" to="E76" type="car_passenger"/>
    <trip id="motorcycle26" depart="26.00" from="-E5" to="E76" type="motorcycle_motorcycle"/>
    <trip id="truck26" depart="26.00" from="-E5" to="E76" type="truck_truck"/>
    <trip id="bus27" depart="27.00" from="E29" to="E23" type="bus_bus"/>
    <trip id="car27" depart="27.00" from="E29" to="E23" type="car_passenger"/>
    <trip id="motorcycle27" depart="27.00" from="E29" to="E23" type="motorcycle_motorcycle"/>
    <trip id="truck27" depart="27.00" from="E29" to="E23" type="truck_truck"/>
    <trip id="bus28" depart="28.00" from="-E37" to="E44" type="bus_bus"/>
    <trip id="car28" depart="28.00" from="-E37" to="E44" type="car_passenger"/>
    <trip id="motorcycle28" depart="28.00" from="-E37" to="E44" type="motorcycle_motorcycle"/>
    <trip id="truck28" depart="28.00" from="-E37" to="E44" type="truck_truck"/>
    <trip id="bus29" depart="29.00" from="-E35" to="-E68" type="bus_bus"/>
    <trip id="car29" depart="29.00" from="-E35" to="-E68" type="car_passenger"/>
    <trip id="motorcycle29" depart="29.00" from="-E35" to="-E68" type="motorcycle_motorcycle"/>
    <trip id="truck29" depart="29.00" from="-E35" to="-E68" type="truck_truck"/>
    <trip id="bus30" depart="30.00" from="E83" to="E28" type="bus_bus"/>
    <trip id="car30" depart="30.00" from="E83" to="E28" type="car_passenger"/>
    <trip id="motorcycle30" depart="30.00" from="E83" to="E28" type="motorcycle_motorcycle"/>
    <trip id="truck30" depart="30.00" from="E83" to="E28" type="truck_truck"/>
    <trip id="bus31" depart="31.00" from="E16" to="E39" type="bus_bus"/>
    <trip id="car31" depart="31.00" from="E16" to="E39" type="car_passenger"/>
    <trip id="motorcycle31" depart="31.00" from="E16" to="E39" type="motorcycle_motorcycle"/>
    <trip id="truck31" depart="31.00" from="E16" to="E39" type="truck_truck"/>
    <trip id="bus32" depart="32.00" from="E63" to="E50" type="bus_bus"/>
    <trip id="car32" depart="32.00" from="E63" to="E50" type="car_passenger"/>
    <trip id="motorcycle32" depart="32.00" from="E63" to="E50" type="motorcycle_motorcycle"/>
    <trip id="truck32" depart="32.00" from="E63" to="E50" type="truck_truck"/>
    <trip id="bus33" depart="33.00" from="-E44" to="-E12" type="bus_bus"/>
    <trip id="car33" depart="33.00" from="-E44" to="-E12" type="car_passenger"/>
    <trip id="motorcycle33" depart="33.00" from="-E44" to="-E12" type="motorcycle_motorcycle"/>
    <trip id="truck33" depart="33.00" from="-E44" to="-E12" type="truck_truck"/>
    <trip id="bus34" depart="34.00" from="-E56" to="-E5" type="bus_bus"/>
    <trip id="car34" depart="34.00" from="-E56" to="-E5" type="car_passenger"/>
    <trip id="motorcycle34" depart="34.00" from="-E56" to="-E5" type="motorcycle_motorcycle"/>
    <trip id="truck34" depart="34.00" from="-E56" to="-E5" type="truck_truck"/>
    <trip id="bus35" depart="35.00" from="-E42" to="E77" type="bus_bus"/>
    <trip id="car35" depart="35.00" from="-E42" to="E77" type="car_passenger"/>
    <trip id="motorcycle35" depart="35.00" from="-E42" to="E77" type="motorcycle_motorcycle"/>
    <trip id="truck35" depart="35.00" from="-E42" to="E77" type="truck_truck"/>
    <trip id="bus36" depart="36.00" from="E68" to="-E56" type="bus_bus"/>
    <trip id="car36" depart="36.00" from="E68" to="-E56" type="car_passenger"/>
    <trip id="motorcycle36" depart="36.00" from="E68" to="-E56" type="motorcycle_motorcycle"/>
    <trip id="truck36" depart="36.00" from="E68" to="-E56" type="truck_truck"/>
    <trip id="bus37" depart="37.00" from="E3" to="-E70" type="bus_bus"/>
    <trip id="car37" depart="37.00" from="E3" to="-E70" type="car_passenger"/>
    <trip id="motorcycle37" depart="37.00" from="E3" to="-E70" type="motorcycle_motorcycle"/>
    <trip id="truck37" depart="37.00" from="E3" to="-E70" type="truck_truck"/>
    <trip id="bus38" depart="38.00" from="E73" to="-E79" type="bus_bus"/>
    <trip id="car38" depart="38.00" from="E73" to="-E79" type="car_passenger"/>
    <trip id="motorcycle38" depart="38.00" from="E73" to="-E79" type="motorcycle_motorcycle"/>
    <trip id="truck38" depart="38.00" from="E73" to="-E79" type="truck_truck"/>
    <trip id="bus39" depart="39.00" from="-E5" to="-E47" type="bus_bus"/>
    <trip id="car39" depart="39.00" from="-E5" to="-E47" type="car_passenger"/>
    <trip id="motorcycle39" depart="39.00" from="-E5" to="-E47" type="motorcycle_motorcycle"/>
    <trip id="truck39" depart="39.00" from="-E5" to="-E47" type="truck_truck"/>
    <trip id="bus40" depart="40.00" from="E17" to="-E49" type="bus_bus"/>
    <trip id="car40" depart="40.00" from="E17" to="-E49" type="car_passenger"/>
    <trip id="motorcycle40" depart="40.00" from="E17" to="-E49" type="motorcycle_motorcycle"/>
    <trip id="truck40" depart="40.00" from="E17" to="-E49" type="truck_truck"/>
    <trip id="bus41" depart="41.00" from="E2" to="E70" type="bus_bus"/>
    <trip id="car41" depart="41.00" from="E2" to="E70" type="car_passenger"/>
    <trip id="motorcycle41" depart="41.00" from="E2" to="E70" type="motorcycle_motorcycle"/>
    <trip id="truck41" depart="41.00" from="E2" to="E70" type="truck_truck"/>
    <trip id="bus42" depart="42.00" from="-E70" to="-E43" type="bus_bus"/>
    <trip id="car42" depart="42.00" from="-E70" to="-E43" type="car_passenger"/>
    <trip id="motorcycle42" depart="42.00" from="-E70" to="-E43" type="motorcycle_motorcycle"/>
    <trip id="truck42" depart="42.00" from="-E70" to="-E43" type="truck_truck"/>
    <trip id="bus43" depart="43.00" from="E9" to="E1" type="bus_bus"/>
    <trip id="car43" depart="43.00" from="E9" to="E1" type="car_passenger"/>
    <trip id="motorcycle43" depart="43.00" from="E9" to="E1" type="motorcycle_motorcycle"/>
    <trip id="truck43" depart="43.00" from="E9" to="E1" type="truck_truck"/>
    <trip id="bus44" depart="44.00" from="-E20" to="-E15" type="bus_bus"/>
    <trip id="car44" depart="44.00" from="-E20" to="-E15" type="car_passenger"/>
    <trip id="motorcycle44" depart="44.00" from="-E20" to="-E15" type="motorcycle_motorcycle"/>
    <trip id="truck44" depart="44.00" from="-E20" to="-E15" type="truck_truck"/>
    <trip id="bus45" depart="45.00" from="-E23" to="E26" type="bus_bus"/>
    <trip id="car45" depart="45.00" from="-E23" to="E26" type="car_passenger"/>
    <trip id="motorcycle45" depart="45.00" from="-E23" to="E26" type="motorcycle_motorcycle"/>
    <trip id="truck45" depart="45.00" from="-E23" to="E26" type="truck_truck"/>
    <trip id="bus46" depart="46.00" from="E53" to="-E74" type="bus_bus"/>
    <trip id="car46" depart="46.00" from="E53" to="-E74" type="car_passenger"/>
    <trip id="motorcycle46" depart="46.00" from="E53" to="-E74" type="motorcycle_motorcycle"/>
    <trip id="truck46" depart="46.00" from="E53" to="-E74" type="truck_truck"/>
    <trip id="bus47" depart="47.00" from="-E17" to="-E69" type="bus_bus"/>
    <trip id="car47" depart="47.00" from="-E17" to="-E69" type="car_passenger"/>
    <trip id="motorcycle47" depart="47.00" from="-E17" to="-E69" type="motorcycle_motorcycle"/>
    <trip id="truck47" depart="47.00" from="-E17" to="-E69" type="truck_truck"/>
    <trip id="bus48" depart="48.00" from="E9" to="E12" type="bus_bus"/>
    <trip id="car48" depart="48.00" from="E9" to="E12" type="car_passenger"/>
    <trip id="motorcycle48" depart="48.00" from="E9" to="E12" type="motorcycle_motorcycle"/>
    <trip id="truck48" depart="48.00" from="E9" to="E12" type="truck_truck"/>
    <trip id="bus49" depart="49.00" from="E80" to="E65" type="bus_bus"/>
    <trip id="car49" depart="49.00" from="E80" to="E65" type="car_passenger"/>
    <trip id="motorcycle49" depart="49.00" from="E80" to="E65" type="motorcycle_motorcycle"/>
    <trip id="truck49" depart="49.00" from="E80" to="E65" type="truck_truck"/>
    <trip id="bus50" depart="50.00" from="-E1" to="E43" type="bus_bus"/>
    <trip id="car50" depart="50.00" from="-E1" to="E43" type="car_passenger"/>
    <trip id="motorcycle50" depart="50.00" from="-E1" to="E43" type="motorcycle_motorcycle"/>
    <trip id="truck50" depart="50.00" from="-E1" to="E43" type="truck_truck"/>
    <trip id="bus51" depart="51.00" from="E38" to="E13" type="bus_bus"/>
    <trip id="car51" depart="51.00" from="E38" to="E13" type="car_passenger"/>
    <trip id="motorcycle51" depart="51.00" from="E38" to="E13" type="motorcycle_motorcycle"/>
    <trip id="truck51" depart="51.00" from="E38" to="E13" type="truck_truck"/>
    <trip id="bus52" depart="52.00" from="-E5" to="E28" type="bus_bus"/>
    <trip id="car52" depart="52.00" from="-E5" to="E28" type="car_passenger"/>
    <trip id="motorcycle52" depart="52.00" from="-E5" to="E28" type="motorcycle_motorcycle"/>
    <trip id="truck52" depart="52.00" from="-E5" to="E28" type="truck_truck"/>
    <trip id="bus53" depart="53.00" from="-E23" to="-E76" type="bus_bus"/>
    <trip id="car53" depart="53.00" from="-E23" to="-E76" type="car_passenger"/>
    <trip id="motorcycle53" depart="53.00" from="-E23" to="-E76" type="motorcycle_motorcycle"/>
    <trip id="truck53" depart="53.00" from="-E23" to="-E76" type="truck_truck"/>
    <trip id="bus54" depart="54.00" from="-E78" to="E78" type="bus_bus"/>
    <trip id="car54" depart="54.00" from="-E78" to="E78" type="car_passenger"/>
    <trip id="motorcycle54" depart="54.00" from="-E78" to="E78" type="motorcycle_motorcycle"/>
    <trip id="truck54" depart="54.00" from="-E78" to="E78" type="truck_truck"/>
    <trip id="bus55" depart="55.00" from="E68" to="-E5" type="bus_bus"/>
    <trip id="car55" depart="55.00" from="E68" to="-E5" type="car_passenger"/>
    <trip id="motorcycle55" depart="55.00" from="E68" to="-E5" type="motorcycle_motorcycle"/>
    <trip id="truck55" depart="55.00" from="E68" to="-E5" type="truck_truck"/>
    <trip id="bus56" depart="56.00" from="E0" to="-E38" type="bus_bus"/>
    <trip id="car56" depart="56.00" from="E0" to="-E38" type="car_passenger"/>
    <trip id="motorcycle56" depart="56.00" from="E0" to="-E38" type="motorcycle_motorcycle"/>
    <trip id="truck56" depart="56.00" from="E0" to="-E38" type="truck_truck"/>
    <trip id="bus57" depart="57.00" from="E72" to="E67" type="bus_bus"/>
    <trip id="car57" depart="57.00" from="E72" to="E67" type="car_passenger"/>
    <trip id="motorcycle57" depart="57.00" from="E72" to="E67" type="motorcycle_motorcycle"/>
    <trip id="truck57" depart="57.00" from="E72" to="E67" type="truck_truck"/>
    <trip id="bus58" depart="58.00" from="-E54" to="E28" type="bus_bus"/>
    <trip id="car58" depart="58.00" from="-E54" to="E28" type="car_passenger"/>
    <trip id="motorcycle58" depart="58.00" from="-E54" to="E28" type="motorcycle_motorcycle"/>
    <trip id="truck58" depart="58.00" from="-E54" to="E28" type="truck_truck"/>
    <trip id="bus59" depart="59.00" from="E23" to="-E3" type="bus_bus"/>
    <trip id="car59" depart="59.00" from="E23" to="-E3" type="car_passenger"/>
    <trip id="motorcycle59" depart="59.00" from="E23" to="-E3" type="motorcycle_motorcycle"/>
    <trip id="truck59" depart="59.00" from="E23" to="-E3" type="truck_truck"/>
    <trip id="bus60" depart="60.00" from="E49" to="E13" type="bus_bus"/>
    <trip id="car60" depart="60.00" from="E49" to="E13" type="car_passenger"/>
    <trip id="motorcycle60" depart="60.00" from="E49" to="E13" type="motorcycle_motorcycle"/>
    <trip id="truck60" depart="60.00" from="E49" to="E13" type="truck_truck"/>
    <trip id="bus61" depart="61.00" from="E51" to="E12" type="bus_bus"/>
    <trip id="car61" depart="61.00" from="E51" to="E12" type="car_passenger"/>
    <trip id="motorcycle61" depart="61.00" from="E51" to="E12" type="motorcycle_motorcycle"/>
    <trip id="truck61" depart="61.00" from="E51" to="E12" type="truck_truck"/>
    <trip id="bus62" depart="62.00" from="-E0" to="-E6" type="bus_bus"/>
    <trip id="car62" depart="62.00" from="-E0" to="-E6" type="car_passenger"/>
    <trip id="motorcycle62" depart="62.00" from="-E0" to="-E6" type="motorcycle_motorcycle"/>
    <trip id="truck62" depart="62.00" from="-E0" to="-E6" type="truck_truck"/>
    <trip id="bus63" depart="63.00" from="-E10" to="E75" type="bus_bus"/>
    <trip id="car63" depart="63.00" from="-E10" to="E75" type="car_passenger"/>
    <trip id="motorcycle63" depart="63.00" from="-E10" to="E75" type="motorcycle_motorcycle"/>
    <trip id="truck63" depart="63.00" from="-E10" to="E75" type="truck_truck"/>
    <trip id="bus64" depart="64.00" from="E68" to="E61" type="bus_bus"/>
    <trip id="car64" depart="64.00" from="E68" to="E61" type="car_passenger"/>
    <trip id="motorcycle64" depart="64.00" from="E68" to="E61" type="motorcycle_motorcycle"/>
    <trip id="truck64" depart="64.00" from="E68" to="E61" type="truck_truck"/>
    <trip id="bus65" depart="65.00" from="-E55" to="-E16" type="bus_bus"/>
    <trip id="car65" depart="65.00" from="-E55" to="-E16" type="car_passenger"/>
    <trip id="motorcycle65" depart="65.00" from="-E55" to="-E16" type="motorcycle_motorcycle"/>
    <trip id="truck65" depart="65.00" from="-E55" to="-E16" type="truck_truck"/>
    <trip id="bus66" depart="66.00" from="E68" to="E77" type="bus_bus"/>
    <trip id="car66" depart="66.00" from="E68" to="E77" type="car_passenger"/>
    <trip id="motorcycle66" depart="66.00" from="E68" to="E77" type="motorcycle_motorcycle"/>
    <trip id="truck66" depart="66.00" from="E68" to="E77" type="truck_truck"/>
    <trip id="bus67" depart="67.00" from="-E20" to="-E82" type="bus_bus"/>
    <trip id="car67" depart="67.00" from="-E20" to="-E82" type="car_passenger"/>
    <trip id="motorcycle67" depart="67.00" from="-E20" to="-E82" type="motorcycle_motorcycle"/>
    <trip id="truck67" depart="67.00" from="-E20" to="-E82" type="truck_truck"/>
    <trip id="bus68" depart="68.00" from="-E18" to="E49" type="bus_bus"/>
    <trip id="car68" depart="68.00" from="-E18" to="E49" type="car_passenger"/>
    <trip id="motorcycle68" depart="68.00" from="-E18" to="E49" type="motorcycle_motorcycle"/>
    <trip id="truck68" depart="68.00" from="-E18" to="E49" type="truck_truck"/>
    <trip id="bus69" depart="69.00" from="E5" to="-E26" type="bus_bus"/>
    <trip id="car69" depart="69.00" from="E5" to="-E26" type="car_passenger"/>
    <trip id="motorcycle69" depart="69.00" from="E5" to="-E26" type="motorcycle_motorcycle"/>
    <trip id="truck69" depart="69.00" from="E5" to="-E26" type="truck_truck"/>
    <trip id="bus70" depart="70.00" from="-E81" to="E15" type="bus_bus"/>
    <trip id="car70" depart="70.00" from="-E81" to="E15" type="car_passenger"/>
    <trip id="motorcycle70" depart="70.00" from="-E81" to="E15" type="motorcycle_motorcycle"/>
    <trip id="truck70" depart="70.00" from="-E81" to="E15" type="truck_truck"/>
    <trip id="bus71" depart="71.00" from="-E5" to="E67" type="bus_bus"/>
    <trip id="car71" depart="71.00" from="-E5" to="E67" type="car_passenger"/>
    <trip id="motorcycle71" depart="71.00" from="-E5" to="E67" type="motorcycle_motorcycle"/>
    <trip id="truck71" depart="71.00" from="-E5" to="E67" type="truck_truck"/>
    <trip id="bus72" depart="72.00" from="-E74" to="-E42" type="bus_bus"/>
    <trip id="car72" depart="72.00" from="-E74" to="-E42" type="car_passenger"/>
    <trip id="motorcycle72" depart="72.00" from="-E74" to="-E42" type="motorcycle_motorcycle"/>
    <trip id="truck72" depart="72.00" from="-E74" to="-E42" type="truck_truck"/>
    <trip id="bus73" depart="73.00" from="E13" to="E44" type="bus_bus"/>
    <trip id="car73" depart="73.00" from="E13" to="E44" type="car_passenger"/>
    <trip id="motorcycle73" depart="73.00" from="E13" to="E44" type="motorcycle_motorcycle"/>
    <trip id="truck73" depart="73.00" from="E13" to="E44" type="truck_truck"/>
    <trip id="bus74" depart="74.00" from="-E40" to="-E56" type="bus_bus"/>
    <trip id="car74" depart="74.00" from="-E40" to="-E56" type="car_passenger"/>
    <trip id="motorcycle74" depart="74.00" from="-E40" to="-E56" type="motorcycle_motorcycle"/>
    <trip id="truck74" depart="74.00" from="-E40" to="-E56" type="truck_truck"/>
    <trip id="bus75" depart="75.00" from="E9" to="E29" type="bus_bus"/>
    <trip id="car75" depart="75.00" from="E9" to="E29" type="car_passenger"/>
    <trip id="motorcycle75" depart="75.00" from="E9" to="E29" type="motorcycle_motorcycle"/>
    <trip id="truck75" depart="75.00" from="E9" to="E29" type="truck_truck"/>
    <trip id="bus76" depart="76.00" from="-E76" to="E10" type="bus_bus"/>
    <trip id="car76" depart="76.00" from="-E76" to="E10" type="car_passenger"/>
    <trip id="motorcycle76" depart="76.00" from="-E76" to="E10" type="motorcycle_motorcycle"/>
    <trip id="truck76" depart="76.00" from="-E76" to="E10" type="truck_truck"/>
    <trip id="bus77" depart="77.00" from="-E25" to="-E44" type="bus_bus"/>
    <trip id="car77" depart="77.00" from="-E25" to="-E44" type="car_passenger"/>
    <trip id="motorcycle77" depart="77.00" from="-E25" to="-E44" type="motorcycle_motorcycle"/>
    <trip id="truck77" depart="77.00" from="-E25" to="-E44" type="truck_truck"/>
    <trip id="bus78" depart="78.00" from="-E62" to="E20" type="bus_bus"/>
    <trip id="car78" depart="78.00" from="-E62" to="E20" type="car_passenger"/>
    <trip id="motorcycle78" depart="78.00" from="-E62" to="E20" type="motorcycle_motorcycle"/>
    <trip id="truck78" depart="78.00" from="-E62" to="E20" type="truck_truck"/>
    <trip id="bus79" depart="79.00" from="-E44" to="-E43" type="bus_bus"/>
    <trip id="car79" depart="79.00" from="-E44" to="-E43" type="car_passenger"/>
    <trip id="motorcycle79" depart="79.00" from="-E44" to="-E43" type="motorcycle_motorcycle"/>
    <trip id="truck79" depart="79.00" from="-E44" to="-E43" type="truck_truck"/>
    <trip id="bus80" depart="80.00" from="-E18" to="E26" type="bus_bus"/>
    <trip id="car80" depart="80.00" from="-E18" to="E26" type="car_passenger"/>
    <trip id="motorcycle80" depart="80.00" from="-E18" to="E26" type="motorcycle_motorcycle"/>
    <trip id="truck80" depart="80.00" from="-E18" to="E26" type="truck_truck"/>
    <trip id="bus81" depart="81.00" from="-E44" to="E71" type="bus_bus"/>
    <trip id="car81" depart="81.00" from="-E44" to="E71" type="car_passenger"/>
    <trip id="motorcycle81" depart="81.00" from="-E44" to="E71" type="motorcycle_motorcycle"/>
    <trip id="truck81" depart="81.00" from="-E44" to="E71" type="truck_truck"/>
    <trip id="bus82" depart="82.00" from="E65" to="-E18" type="bus_bus"/>
    <trip id="car82" depart="82.00" from="E65" to="-E18" type="car_passenger"/>
    <trip id="motorcycle82" depart="82.00" from="E65" to="-E18" type="motorcycle_motorcycle"/>
    <trip id="truck82" depart="82.00" from="E65" to="-E18" type="truck_truck"/>
    <trip id="bus83" depart="83.00" from="-E46" to="E36" type="bus_bus"/>
    <trip id="car83" depart="83.00" from="-E46" to="E36" type="car_passenger"/>
    <trip id="motorcycle83" depart="83.00" from="-E46" to="E36" type="motorcycle_motorcycle"/>
    <trip id="truck83" depart="83.00" from="-E46" to="E36" type="truck_truck"/>
    <trip id="bus84" depart="84.00" from="-E42" to="-E27" type="bus_bus"/>
    <trip id="car84" depart="84.00" from="-E42" to="-E27" type="car_passenger"/>
    <trip id="motorcycle84" depart="84.00" from="-E42" to="-E27" type="motorcycle_motorcycle"/>
    <trip id="truck84" depart="84.00" from="-E42" to="-E27" type="truck_truck"/>
    <trip id="bus85" depart="85.00" from="E76" to="E18" type="bus_bus"/>
    <trip id="car85" depart="85.00" from="E76" to="E18" type="car_passenger"/>
    <trip id="motorcycle85" depart="85.00" from="E76" to="E18" type="motorcycle_motorcycle"/>
    <trip id="truck85" depart="85.00" from="E76" to="E18" type="truck_truck"/>
    <trip id="bus86" depart="86.00" from="-E80" to="E52" type="bus_bus"/>
    <trip id="car86" depart="86.00" from="-E80" to="E52" type="car_passenger"/>
    <trip id="motorcycle86" depart="86.00" from="-E80" to="E52" type="motorcycle_motorcycle"/>
    <trip id="truck86" depart="86.00" from="-E80" to="E52" type="truck_truck"/>
    <trip id="bus87" depart="87.00" from="E55" to="-E39" type="bus_bus"/>
    <trip id="car87" depart="87.00" from="E55" to="-E39" type="car_passenger"/>
    <trip id="motorcycle87" depart="87.00" from="E55" to="-E39" type="motorcycle_motorcycle"/>
    <trip id="truck87" depart="87.00" from="E55" to="-E39" type="truck_truck"/>
    <trip id="bus88" depart="88.00" from="-E21" to="-E75" type="bus_bus"/>
    <trip id="car88" depart="88.00" from="-E21" to="-E75" type="car_passenger"/>
    <trip id="motorcycle88" depart="88.00" from="-E21" to="-E75" type="motorcycle_motorcycle"/>
    <trip id="truck88" depart="88.00" from="-E21" to="-E75" type="truck_truck"/>
    <trip id="bus89" depart="89.00" from="-E74" to="-E8" type="bus_bus"/>
    <trip id="car89" depart="89.00" from="-E74" to="-E8" type="car_passenger"/>