<?xml version="1.0" encoding="UTF-8"?>

<!-- generated on 2024-06-20 00:16:33.601143 by randomTrips.py v1_20_0+0002-343658e7c64
<configuration>
    <net-file value="F:\Project\Thesis\Thesis\Sumo\traci\new\new.net.xml"/>
    <output-trip-file value="F:\Project\Thesis\Thesis\Sumo\traci\new\car.trips.xml"/>
    <prefix value="car"/>
    <vehicle-class value="passenger"/>
</configuration>
-->

<routes xmlns:xsi="http://www.w3.org/2001/XMLSchema-instance" xsi:noNamespaceSchemaLocation="http://sumo.dlr.de/xsd/routes_file.xsd">
    <vType id="car_passenger" vClass="passenger"/>
    <trip id="car0" depart="0.00" from="E28" to="-E11" type="car_passenger"/>
    <trip id="car1" depart="1.00" from="-E50" to="-E43" type="car_passenger"/>
    <trip id="car2" depart="2.00" from="E45" to="E37" type="car_passenger"/>
    <trip id="car3" depart="3.00" from="E7" to="-E20" type="car_passenger"/>
    <trip id="car4" depart="4.00" from="-E74" to="-E12" type="car_passenger"/>
    <trip id="car5" depart="5.00" from="-E43" to="E0" type="car_passenger"/>
    <trip id="car6" depart="6.00" from="-E12" to="-E40" type="car_passenger"/>
    <trip id="car7" depart="7.00" from="E29" to="E14" type="car_passenger"/>
    <trip id="car8" depart="8.00" from="-E43" to="E20" type="car_passenger"/>
    <trip id="car9" depart="9.00" from="E56" to="-E0" type="car_passenger"/>
    <trip id="car10" depart="10.00" from="E55" to="E40" type="car_passenger"/>
    <trip id="car11" depart="11.00" from="-E62" to="-E3" type="car_passenger"/>
    <trip id="car12" depart="12.00" from="E79" to="-E62" type="car_passenger"/>
    <trip id="car13" depart="13.00" from="-E21" to="-E21" type="car_passenger"/>
    <trip id="car14" depart="14.00" from="E63" to="E22" type="car_passenger"/>
    <trip id="car15" depart="15.00" from="E55" to="E44" type="car_passenger"/>
    <trip id="car16" depart="16.00" from="E13" to="E80" type="car_passenger"/>
    <trip id="car17" depart="17.00" from="-E68" to="E15" type="car_passenger"/>
    <trip id="car18" depart="18.00" from="E61" to="E25" type="car_passenger"/>
    <trip id="car19" depart="19.00" from="E65" to="E19" type="car_passenger"/>
    <trip id="car20" depart="20.00" from="E41" to="-E14" type="car_passenger"/>
    <trip id="car21" depart="21.00" from="-E44" to="-E52" type="car_passenger"/>
    <trip id="car22" depart="22.00" from="-E2" to="-E45" type="car_passenger"/>
    <trip id="car23" depart="23.00" from="-E22" to="-E51" type="car_passenger"/>
    <trip id="car24" depart="24.00" from="E27" to="-E66" type="car_passenger"/>
    <trip id="car25" depart="25.00" from="-E67" to="-E41" type="car_passenger"/>
    <trip id="car26" depart="26.00" from="-E5" to="E76" type="car_passenger"/>
    <trip id="car27" depart="27.00" from="E29" to="E23" type="car_passenger"/>
    <trip id="car28" depart="28.00" from="-E37" to="E44" type="car_passenger"/>
    <trip id="car29" depart="29.00" from="-E35" to="-E68" type="car_passenger"/>
    <trip id="car30" depart="30.00" from="E83" to="E28" type="car_passenger"/>
    <trip id="car31" depart="31.00" from="E16" to="E39" type="car_passenger"/>
    <trip id="car32" depart="32.00" from="E63" to="E50" type="car_passenger"/>
    <trip id="car33" depart="33.00" from="-E44" to="-E12" type="car_passenger"/>
    <trip id="car34" depart="34.00" from="-E56" to="-E5" type="car_passenger"/>
    <trip id="car35" depart="35.00" from="-E42" to="E77" type="car_passenger"/>
    <trip id="car36" depart="36.00" from="E68" to="-E56" type="car_passenger"/>
    <trip id="car37" depart="37.00" from="E3" to="-E70" type="car_passenger"/>
    <trip id="car38" depart="38.00" from="E73" to="-E79" type="car_passenger"/>
    <trip id="car39" depart="39.00" from="-E5" to="-E47" type="car_passenger"/>
    <trip id="car40" depart="40.00" from="E17" to="-E49" type="car_passenger"/>
    <trip id="car41" depart="41.00" from="E2" to="E70" type="car_passenger"/>
    <trip id="car42" depart="42.00" from="-E70" to="-E43" type="car_passenger"/>
    <trip id="car43" depart="43.00" from="E9" to="E1" type="car_passenger"/>
    <trip id="car44" depart="44.00" from="-E20" to="-E15" type="car_passenger"/>
    <trip id="car45" depart="45.00" from="-E23" to="E26" type="car_passenger"/>
    <trip id="car46" depart="46.00" from="E53" to="-E74" type="car_passenger"/>
    <trip id="car47" depart="47.00" from="-E17" to="-E69" type="car_passenger"/>
    <trip id="car48" depart="48.00" from="E9" to="E12" type="car_passenger"/>
    <trip id="car49" depart="49.00" from="E80" to="E65" type="car_passenger"/>
    <trip id="car50" depart="50.00" from="-E1" to="E43" type="car_passenger"/>
    <trip id="car51" depart="51.00" from="E38" to="E13" type="car_passenger"/>
    <trip id="car52" depart="52.00" from="-E5" to="E28" type="car_passenger"/>
    <trip id="car53" depart="53.00" from="-E23" to="-E76" type="car_passenger"/>
    <trip id="car54" depart="54.00" from="-E78" to="E78" type="car_passenger"/>
    <trip id="car55" depart="55.00" from="E68" to="-E5" type="car_passenger"/>
    <trip id="car56" depart="56.00" from="E0" to="-E38" type="car_passenger"/>
    <trip id="car57" depart="57.00" from="E72" to="E67" type="car_passenger"/>
    <trip id="car58" depart="58.00" from="-E54" to="E28" type="car_passenger"/>
    <trip id="car59" depart="59.00" from="E23" to="-E3" type="car_passenger"/>
    <trip id="car60" depart="60.00" from="E49" to="E13" type="car_passenger"/>
    <trip id="car61" depart="61.00" from="E51" to="E12" type="car_passenger"/>
    <trip id="car62" depart="62.00" from="-E0" to="-E6" type="car_passenger"/>
    <trip id="car63" depart="63.00" from="-E10" to="E75" type="car_passenger"/>
    <trip id="car64" depart="64.00" from="E68" to="E61" type="car_passenger"/>
    <trip id="car65" depart="65.00" from="-E55" to="-E16" type="car_passenger"/>
    <trip id="car66" depart="66.00" from="E68" to="E77" type="car_passenger"/>
    <trip id="car67" depart="67.00" from="-E20" to="-E82" type="car_passenger"/>
    <trip id="car68" depart="68.00" from="-E18" to="E49" type="car_passenger"/>
    <trip id="car69" depart="69.00" from="E5" to="-E26" type="car_passenger"/>
    <trip id="car70" depart="70.00" from="-E81" to="E15" type="car_passenger"/>
    <trip id="car71" depart="71.00" from="-E5" to="E67" type="car_passenger"/>
    <trip id="car72" depart="72.00" from="-E74" to="-E42" type="car_passenger"/>
    <trip id="car73" depart="73.00" from="E13" to="E44" type="car_passenger"/>
    <trip id="car74" depart="74.00" from="-E40" to="-E56" type="car_passenger"/>
    <trip id="car75" depart="75.00" from="E9" to="E29" type="car_passenger"/>
    <trip id="car76" depart="76.00" from="-E76" to="E10" type="car_passenger"/>
    <trip id="car77" depart="77.00" from="-E25" to="-E44" type="car_passenger"/>
    <trip id="car78" depart="78.00" from="-E62" to="E20" type="car_passenger"/>
    <trip id="car79" depart="79.00" from="-E44" to="-E43" type="car_passenger"/>
    <trip id="car80" depart="80.00" from="-E18" to="E26" type="car_passenger"/>
    <trip id="car81" depart="81.00" from="-E44" to="E71" type="car_passenger"/>
    <trip id="car82" depart="82.00" from="E65" to="-E18" type="car_passenger"/>
    <trip id="car83" depart="83.00" from="-E46" to="E36" type="car_passenger"/>
    <trip id="car84" depart="84.00" from="-E42" to="-E27" type="car_passenger"/>
    <trip id="car85" depart="85.00" from="E76" to="E18" type="car_passenger"/>
    <trip id="car86" depart="86.00" from="-E80" to="E52" type="car_passenger"/>
    <trip id="car87" depart="87.00" from="E55" to="-E39" type="car_passenger"/>
    <trip id="car88" depart="88.00" from="-E21" to="-E75" type="car_passenger"/>
    <trip id="car89" depart="89.00" from="-E74" to="-E8" type="car_passenger"/>
    <trip id="car90" depart="90.00" from="E44" to="E37" type="car_passenger"/>
    <trip id="car91" depart="91.00" from="E82" to="-E21" type="car_passenger"/>
    <trip id="car92" depart="92.00" from="-E71" to="-E62" type="car_passenger"/>
    <trip id="car93" depart="93.00" from="E65" to="-E47" type="car_passenger"/>
    <trip id="car94" depart="94.00" from="-E39" to="-E78" type="car_passenger"/>
    <trip id="car95" depart="95.00" from="-E74" to="-E51" type="car_passenger"/>
    <trip id="car96" depart="96.00" from="-E47" to="E74" type="car_passenger"/>
    <trip id="car97" depart="97.00" from="-E77" to="E65" type="car_passenger"/>
    <trip id="car98" depart="98.00" from="E15" to="-E15" type="car_passenger"/>
    <trip id="car99" depart="99.00" from="E9" to="E62" type="car_passenger"/>
    <trip id="car100" depart="100.00" from="E80" to="E74" type="car_passenger"/>
    <trip id="car101" depart="101.00" from="E64" to="-E36" type="car_passenger"/>
    <trip id="car102" depart="102.00" from="-E82" to="-E42" type="car_passenger"/>
    <trip id="car103" depart="103.00" from="-E70" to="-E16" type="car_passenger"/>
    <trip id="car104" depart="104.00" from="-E68" to="E82" type="car_passenger"/>
    <trip id="car105" depart="105.00" from="-E5" to="E52" type="car_passenger"/>
    <trip id="car106" depart="106.00" from="-E79" to="-E74" type="car_passenger"/>
    <trip id="car107" depart="107.00" from="E79" to="E9" type="car_passenger"/>
    <trip id="car108" depart="108.00" from="E16" to="E43" type="car_passenger"/>
    <trip id="car109" depart="109.00" from="-E3" to="-E54" type="car_passenger"/>
    <trip id="car110" depart="110.00" from="E80" to="E2" type="car_passenger"/>
    <trip id="car111" depart="111.00" from="E14" to="E47" type="car_passenger"/>
    <trip id="car112" depart="112.00" from="-E16" to="E2" type="car_passenger"/>
    <trip id="car113" depart="113.00" from="E0" to="E64" type="car_passenger"/>
    <trip id="car114" depart="114.00" from="-E3" to="E8" type="car_passenger"/>
    <trip id="car115" depart="115.00" from="-E2" to="-E39" type="car_passenger"/>
    <trip id="car116" depart="116.00" from="E21" to="E37" type="car_passenger"/>
    <trip id="car117" depart="117.00" from="-E45" to="-E25" type="car_passenger"/>
    <trip id="car118" depart="118.00" from="E7" to="-E47" type="car_passenger"/>
    <trip id="car119" depart="119.00" from="E21" to="E25" type="car_passenger"/>
    <trip id="car120" depart="120.00" from="-E73" to="E2" type="car_passenger"/>
    <trip id="car121" depart="121.00" from="E11" to="E76" type="car_passenger"/>
    <trip id="car122" depart="122.00" from="-E41" to="E42" type="car_passenger"/>
    <trip id="car123" depart="123.00" from="-E46" to="-E70" type="car_passenger"/>
    <trip id="car124" depart="124.00" from="E37" to="-E54" type="car_passenger"/>
    <trip id="car125" depart="125.00" from="-E59" to="E48" type="car_passenger"/>
    <trip id="car126" depart="126.00" from="-E19" to="-E79" type="car_passenger"/>
    <trip id="car127" depart="127.00" from="E9" to="E9" type="car_passenger"/>
    <trip id="car128" depart="128.00" from="-E19" to="-E42" type="car_passenger"/>
    <trip id="car129" depart="129.00" from="-E5" to="E75" type="car_passenger"/>
    <trip id="car130" depart="130.00" from="E68" to="E68" type="car_passenger"/>
    <trip id="car131" depart="131.00" from="-E67" to="-E3" type="car_passenger"/>
    <trip id="car132" depart="132.00" from="E61" to="E40" type="car_passenger"/>
    <trip id="car133" depart="133.00" from="E23" to="E83" type="car_passenger"/>
    <trip id="car134" depart="134.00" from="E3" to="-E1" type="car_passenger"/>
    <trip id="car135" depart="135.00" from="E59" to="-E54" type="car_passenger"/>
    <trip id="car136" depart="136.00" from="E35" to="E76" type="car_passenger"/>
    <trip id="car137" depart="137.00" from="-E27" to="-E24" type="car_passenger"/>
    <trip id="car138" depart="138.00" from="-E23" to="E16" type="car_passenger"/>
    <trip id="car139" depart="139.00" from="-E50" to="E22" type="car_passenger"/>
    <trip id="car140" depart="140.00" from="E43" to="-E40" type="car_passenger"/>
    <trip id="car141" depart="141.00" from="E27" to="-E5" type="car_passenger"/>
    <trip id="car142" depart="142.00" from="-E83" to="E71" type="car_passenger"/>
    <trip id="car143" depart="143.00" from="E63" to="-E21" type="car_passenger"/>
    <trip id="car144" depart="144.00" from="-E74" to="-E51" type="car_passenger"/>
    <trip id="car145" depart="145.00" from="-E0" to="E50" type="car_passenger"/>
    <trip id="car146" depart="146.00" from="E27" to="-E49" type="car_passenger"/>
    <trip id="car147" depart="147.00" from="E46" to="E15" type="car_passenger"/>
    <trip id="car148" depart="148.00" from="-E75" to="-E1" type="car_passenger"/>
    <trip id="car149" depart="149.00" from="-E19" to="E69" type="car_passenger"/>
    <trip id="car150" depart="150.00" from="E71" to="E14" type="car_passenger"/>
    <trip id="car151" depart="151.00" from="E61" to="E2" type="car_passenger"/>
    <trip id="car152" depart="152.00" from="-E29" to="-E26" type="car_passenger"/>
    <trip id="car153" depart="153.00" from="-E55" to="E70" type="car_passenger"/>
    <trip id="car154" depart="154.00" from="E54" to="E65" type="car_passenger"/>
    <trip id="car155" depart="155.00" from="E70" to="-E41" type="car_passenger"/>
    <trip id="car156" depart="156.00" from="-E47" to="-E22" type="car_passenger"/>
    <trip id="car157" depart="157.00" from="E51" to="E69" type="car_passenger"/>
    <trip id="car158" depart="158.00" from="-E71" to="E25" type="car_passenger"/>
    <trip id="car159" depart="159.00" from="-E3" to="E75" type="car_passenger"/>
    <trip id="car160" depart="160.00" from="E66" to="E81" type="car_passenger"/>
    <trip id="car161" depart="161.00" from="E56" to="E68" type="car_passenger"/>
    <trip id="car162" depart="162.00" from="-E11" to="E45" type="car_passenger"/>
    <trip id="car163" depart="163.00" from="-E61" to="E75" type="car_passenger"/>
    <trip id="car164" depart="164.00" from="E54" to="E66" type="car_passenger"/>
    <trip id="car165" depart="165.00" from="E56" to="-E5" type="car_passenger"/>
    <trip id="car166" depart="166.00" from="E52" to="-E23" type="car_passenger"/>
    <trip id="car167" depart="167.00" from="E67" to="E65" type="car_passenger"/>
    <trip id="car168" depart="168.00" from="-E43" to="E59" type="car_passenger"/>
    <trip id="car169" depart="169.00" from="-E79" to="-E55" type="car_passenger"/>
    <trip id="car170" depart="170.00" from="E53" to="-E44" type="car_passenger"/>
    <trip id="car171" depart="171.00" from="-E11" to="-E4" type="car_passenger"/>
    <trip id="car172" depart="172.00" from="-E6" to="E66" type="car_passenger"/>
    <trip id="car173" depart="173.00" from="E8" to="-E51" type="car_passenger"/>
    <trip id="car174" depart="174.00" from="E28" to="-E70" type="car_passenger"/>
    <trip id="car175" depart="175.00" from="E82" to="E13" type="car_passenger"/>
    <trip id="car176" depart="176.00" from="E76" to="-E24" type="car_passenger"/>
    <trip id="car177" depart="177.00" from="E80" to="-E38" type="car_passenger"/>
    <trip id="car178" depart="178.00" from="E8" to="-E5" type="car_passenger"/>
    <trip id="car179" depart="179.00" from="-E23" to="-E76" type="car_passenger"/>
    <trip id="car180" depart="180.00" from="E44" to="-E56" type="car_passenger"/>
    <trip id="car181" depart="181.00" from="E23" to="E1" type="car_passenger"/>
    <trip id="car182" depart="182.00" from="-E69" to="E19" type="car_passenger"/>
    <trip id="car183" depart="183.00" from="-E48" to="E41" type="car_passenger"/>
    <trip id="car184" depart="184.00" from="-E0" to="E74" type="car_passenger"/>
    <trip id="car185" depart="185.00" from="E13" to="E43" type="car_passenger"/>
    <trip id="car186" depart="186.00" from="E46" to="E36" type="car_passenger"/>
    <trip id="car187" depart="187.00" from="-E66" to="-E18" type="car_passenger"/>
    <trip id="car188" depart="188.00" from="E35" to="-E61" type="car_passenger"/>
    <trip id="car189" depart="189.00" from="-E56" to="E63" type="car_passenger"/>
    <trip id="car190" depart="190.00" from="E43" to="-E54" type="car_passenger"/>
    <trip id="car191" depart="191.00" from="-E56" to="-E72" type="car_passenger"/>
    <trip id="car192" depart="192.00" from="-E71" to="-E53" type="car_passenger"/>
    <trip id="car193" depart="193.00" from="-E26" to="-E73" type="car_passenger"/>
    <trip id="car194" depart="194.00" from="E76" to="E37" type="car_passenger"/>
    <trip id="car195" depart="195.00" from="E71" to="E24" type="car_passenger"/>
    <trip id="car196" depart="196.00" from="-E54" to="E15" type="car_passenger"/>
    <trip id="car197" depart="197.00" from="-E0" to="-E52" type="car_passenger"/>
    <trip id="car198" depart="198.00" from="-E75" to="E2" type="car_passenger"/>
    <trip id="car199" depart="199.00" from="E3" to="-E8" type="car_passenger"/>
    <trip id="car200" depart="200.00" from="-E77" to="-E42" type="car_passenger"/>
    <trip id="car201" depart="201.00" from="-E80" to="E70" type="car_passenger"/>
    <trip id="car202" depart="202.00" from="E53" to="-E36" type="car_passenger"/>
    <trip id="car203" depart="203.00" from="-E2" to="E10" type="car_passenger"/>
    <trip id="car204" depart="204.00" from="E27" to="-E61" type="car_passenger"/>
    <trip id="car205" depart="205.00" from="E59" to="E48" type="car_passenger"/>
    <trip id="car206" depart="206.00" from="E37" to="-E44" type="car_passenger"/>
    <trip id="car207" depart="207.00" from="-E40" to="-E11" type="car_passenger"/>
    <trip id="car208" depart="208.00" from="-E47" to="-E81" type="car_passenger"/>
    <trip id="car209" depart="209.00" from="E64" to="-E19" type="car_passenger"/>
    <trip id="car210" depart="210.00" from="-E72" to="E26" type="car_passenger"/>
    <trip id="car211" depart="211.00" from="-E4" to="E4" type="car_passenger"/>
    <trip id="car212" depart="212.00" from="-E9" to="-E47" type="car_passenger"/>
    <trip id="car213" depart="213.00" from="E3" to="-E0" type="car_passenger"/>
    <trip id="car214" depart="214.00" from="E48" to="E50" type="car_passenger"/>
    <trip id="car215" depart="215.00" from="-E23" to="-E74" type="car_passenger"/>
    <trip id="car216" depart="216.00" from="-E37" to="E79" type="car_passenger"/>
    <trip id="car217" depart="217.00" from="E10" to="-E15" type="car_passenger"/>
    <trip id="car218" depart="218.00" from="-E47" to="E63" type="car_passenger"/>
    <trip id="car219" depart="219.00" from="-E79" to="E54" type="car_passenger"/>
    <trip id="car220" depart="220.00" from="E36" to="E83" type="car_passenger"/>
    <trip id="car221" depart="221.00" from="E21" to="E78" type="car_passenger"/>
    <trip id="car222" depart="222.00" from="E7" to="E24" type="car_passenger"/>
    <trip id="car223" depart="223.00" from="E43" to="E0" type="car_passenger"/>
    <trip id="car224" depart="224.00" from="E61" to="E15" type="car_passenger"/>
    <trip id="car225" depart="225.00" from="E70" to="E47" type="car_passenger"/>
    <trip id="car226" depart="226.00" from="-E81" to="-E49" type="car_passenger"/>
    <trip id="car227" depart="227.00" from="-E47" to="E27" type="car_passenger"/>
    <trip id="car228" depart="228.00" from="E5" to="E11" type="car_passenger"/>
    <trip id="car229" depart="229.00" from="E26" to="-E50" type="car_passenger"/>
    <trip id="car230" depart="230.00" from="-E19" to="-E52" type="car_passenger"/>
    <trip id="car231" depart="231.00" from="-E50" to="-E59" type="car_passenger"/>
    <trip id="car232" depart="232.00" from="E14" to="-E28" type="car_passenger"/>
    <trip id="car233" depart="233.00" from="-E45" to="E4" type="car_passenger"/>
    <trip id="car234" depart="234.00" from="E41" to="-E17" type="car_passenger"/>
    <trip id="car235" depart="235.00" from="-E71" to="E14" type="car_passenger"/>
    <trip id="car236" depart="236.00" from="-E73" to="-E41" type="car_passenger"/>
    <trip id="car237" depart="237.00" from="-E73" to="E71" type="car_passenger"/>
    <trip id="car238" depart="238.00" from="E2" to="E4" type="car_passenger"/>
    <trip id="car239" depart="239.00" from="E65" to="E5" type="car_passenger"/>
    <trip id="car240" depart="240.00" from="-E68" to="-E0" type="car_passenger"/>
    <trip id="car241" depart="241.00" from="-E64" to="E48" type="car_passenger"/>
    <trip id="car242" depart="242.00" from="E64" to="E78" type="car_passenger"/>
    <trip id="car243" depart="243.00" from="-E73" to="E47" type="car_passenger"/>
    <trip id="car244" depart="244.00" from="E15" to="E22" type="car_passenger"/>
    <trip id="car245" depart="245.00" from="-E43" to="-E43" type="car_passenger"/>
    <trip id="car246" depart="246.00" from="-E76" to="-E12" type="car_passenger"/>
    <trip id="car247" depart="247.00" from="-E62" to="E38" type="car_passenger"/>
    <trip id="car248" depart="248.00" from="-E71" to="-E36" type="car_passenger"/>
    <trip id="car249" depart="249.00" from="-E80" to="-E26" type="car_passenger"/>
    <trip id="car250" depart="250.00" from="E25" to="-E12" type="car_passenger"/>
    <trip id="car251" depart="251.00" from="-E7" to="E17" type="car_passenger"/>
    <trip id="car252" depart="252.00" from="-E12" to="E28" type="car_passenger"/>
    <trip id="car253" depart="253.00" from="-E27" to="-E8" type="car_passenger"/>
    <trip id="car254" depart="254.00" from="-E15" to="-E68" type="car_passenger"/>
    <trip id="car255" depart="255.00" from="-E42" to="-E6" type="car_passenger"/>
    <trip id="car256" depart="256.00" from="E49" to="-E68" type="car_passenger"/>
    <trip id="car257" depart="257.00" from="E48" to="E61" type="car_passenger"/>
    <trip id="car258" depart="258.00" from="-E48" to="-E2" type="car_passenger"/>
    <trip id="car259" depart="259.00" from="-E10" to="E13" type="car_passenger"/>
    <trip id="car260" depart="260.00" from="E9" to="-E64" type="car_passenger"/>
    <trip id="car261" depart="261.00" from="E29" to="E51" type="car_passenger"/>
    <trip id="car262" depart="262.00" from="E3" to="E48" type="car_passenger"/>
    <trip id="car263" depart="263.00" from="E78" to="-E40" type="car_passenger"/>
    <trip id="car264" depart="264.00" from="-E11" to="-E3" type="car_passenger"/>
    <trip id="car265" depart="265.00" from="-E26" to="E36" type="car_passenger"/>
    <trip id="car266" depart="266.00" from="E17" to="-E43" type="car_passenger"/>
    <trip id="car267" depart="267.00" from="E40" to="E5" type="car_passenger"/>
    <trip id="car268" depart="268.00" from="-E36" to="E23" type="car_passenger"/>
    <trip id="car269" depart="269.00" from="E47" to="-E24" type="car_passenger"/>
    <trip id="car270" depart="270.00" from="E59" to="E8" type="car_passenger"/>
    <trip id="car271" depart="271.00" from="-E23" to="-E11" type="car_passenger"/>
    <trip id="car272" depart="272.00" from="-E56" to="E37" type="car_passenger"/>
    <trip id="car273" depart="273.00" from="E79" to="-E70" type="car_passenger"/>
    <trip id="car274" depart="274.00" from="E42" to="-E19" type="car_passenger"/>
    <trip id="car275" depart="275.00" from="E39" to="E26" type="car_passenger"/>
    <trip id="car276" depart="276.00" from="-E22" to="E50" type="car_passenger"/>
    <trip id="car277" depart="277.00" from="E64" to="E22" type="car_passenger"/>
    <trip id="car278" depart="278.00" from="-E25" to="E82" type="car_passenger"/>
    <trip id="car279" depart="279.00" from="E51" to="-E63" type="car_passenger"/>
    <trip id="car280" depart="280.00" from="-E75" to="-E67" type="car_passenger"/>
    <trip id="car281" depart="281.00" from="E0" to="-E62" type="car_passenger"/>
    <trip id="car282" depart="282.00" from="E64" to="E59" type="car_passenger"/>
    <trip id="car283" depart="283.00" from="-E23" to="E8" type="car_passenger"/>
    <trip id="car284" depart="284.00" from="E27" to="E6" type="car_passenger"/>
    <trip id="car285" depart="285.00" from="E41" to="-E76" type="car_passenger"/>
    <trip id="car286" depart="286.00" from="E45" to="E8" type="car_passenger"/>
    <trip id="car287" depart="287.00" from="-E50" to="E55" type="car_passenger"/>
    <trip id="car288" depart="288.00" from="E13" to="-E82" type="car_passenger"/>
    <trip id="car289" depart="289.00" from="-E76" to="E45" type="car_passenger"/>
    <trip id="car290" depart="290.00" from="-E5" to="E64" type="car_passenger"/>
    <trip id="car291" depart="291.00" from="E61" to="-E20" type="car_passenger"/>
    <trip id="car292" depart="292.00" from="E69" to="-E47" type="car_passenger"/>
    <trip id="car293" depart="293.00" from="-E8" to="E23" type="car_passenger"/>
    <trip id="car294" depart="294.00" from="-E68" to="-E12" type="car_passenger"/>
    <trip id="car295" depart="295.00" from="E64" to="-E38" type="car_passenger"/>
    <trip id="car296" depart="296.00" from="-E42" to="E54" type="car_passenger"/>
    <trip id="car297" depart="297.00" from="-E62" to="E68" type="car_passenger"/>
    <trip id="car298" depart="298.00" from="E40" to="-E50" type="car_passenger"/>
    <trip id="car299" depart="299.00" from="-E1" to="E78" type="car_passenger"/>
    <trip id="car300" depart="300.00" from="-E20" to="E43" type="car_passenger"/>
    <trip id="car301" depart="301.00" from="-E83" to="E49" type="car_passenger"/>
    <trip id="car302" depart="302.00" from="E39" to="E29" type="car_passenger"/>
    <trip id="car303" depart="303.00" from="-E83" to="E53" type="car_passenger"/>
    <trip id="car304" depart="304.00" from="-E21" to="-E43" type="car_passenger"/>
    <trip id="car305" depart="305.00" from="E4" to="-E55" type="car_passenger"/>
    <trip id="car306" depart="306.00" from="E2" to="-E80" type="car_passenger"/>
    <trip id="car307" depart="307.00" from="E12" to="-E74" type="car_passenger"/>
    <trip id="car308" depart="308.00" from="E47" to="-E61" type="car_passenger"/>
    <trip id="car309" depart="309.00" from="E40" to="-E50" type="car_passenger"/>
    <trip id="car310" depart="310.00" from="-E48" to="-E25" type="car_passenger"/>
    <trip id="car311" depart="311.00" from="-E4" to="-E25" type="car_passenger"/>
    <trip id="car312" depart="312.00" from="E13" to="E49" type="car_passenger"/>
    <trip id="car313" depart="313.00" from="-E39" to="-E42" type="car_passenger"/>
    <trip id="car314" depart="314.00" from="-E82" to="E44" type="car_passenger"/>
    <trip id="car315" depart="315.00" from="E81" to="E11" type="car_passenger"/>
    <trip id="car316" depart="316.00" from="-E52" to="-E22" type="car_passenger"/>
    <trip id="car317" depart="317.00" from="-E4" to="-E44" type="car_passenger"/>
    <trip id="car318" depart="318.00" from="-E38" to="-E10" type="car_passenger"/>
    <trip id="car319" depart="319.00" from="E13" to="-E50" type="car_passenger"/>
    <trip id="car320" depart="320.00" from="E81" to="E16" type="car_passenger"/>
    <trip id="car321" depart="321.00" from="E40" to="-E26" type="car_passenger"/>
    <trip id="car322" depart="322.00" from="E67" to="-E83" type="car_passenger"/>
    <trip id="car323" depart="323.00" from="E67" to="E19" type="car_passenger"/>
    <trip id="car324" depart="324.00" from="-E80" to="-E76" type="car_passenger"/>
    <trip id="car325" depart="325.00" from="-E39" to="-E15" type="car_passenger"/>
    <trip id="car326" depart="326.00" from="E77" to="-E81" type="car_passenger"/>
    <trip id="car327" depart="327.00" from="E59" to="-E70" type="car_passenger"/>
    <trip id="car328" depart="328.00" from="-E19" to="E26" type="car_passenger"/>
    <trip id="car329" depart="329.00" from="-E16" to="-E29" type="car_passenger"/>
    <trip id="car330" depart="330.00" from="E17" to="-E55" type="car_passenger"/>
    <trip id="car331" depart="331.00" from="E9" to="-E25" type="car_passenger"/>
    <trip id="car332" depart="332.00" from="E5" to="E23" type="car_passenger"/>
    <trip id="car333" depart="333.00" from="E53" to="-E44" type="car_passenger"/>
    <trip id="car334" depart="334.00" from="E11" to="-E78" type="car_passenger"/>
    <trip id="car335" depart="335.00" from="-E77" to="E65" type="car_passenger"/>
    <trip id="car336" depart="336.00" from="E83" to="-E55" type="car_passenger"/>
    <trip id="car337" depart="337.00" from="E25" to="E23" type="car_passenger"/>
    <trip id="car338" depart="338.00" from="E46" to="E78" type="car_passenger"/>
    <trip id="car339" depart="339.00" from="-E41" to="-E42" type="car_passenger"/>
    <trip id="car340" depart="340.00" from="E35" to="-E3" type="car_passenger"/>
    <trip id="car341" depart="341.00" from="-E37" to="-E19" type="car_passenger"/>
    <trip id="car342" depart="342.00" from="-E0" to="-E78" type="car_passenger"/>
    <trip id="car343" depart="343.00" from="E21" to="-E53" type="car_passenger"/>
    <trip id="car344" depart="344.00" from="-E45" to="E41" type="car_passenger"/>
    <trip id="car345" depart="345.00" from="E40" to="-E79" type="car_passenger"/>
    <trip id="car346" depart="346.00" from="E39" to="E74" type="car_passenger"/>
    <trip id="car347" depart="347.00" from="E52" to="E26" type="car_passenger"/>
    <trip id="car348" depart="348.00" from="E35" to="E75" type="car_passenger"/>
    <trip id="car349" depart="349.00" from="-E74" to="E14" type="car_passenger"/>
    <trip id="car350" depart="350.00" from="E29" to="E72" type="car_passenger"/>
    <trip id="car351" depart="351.00" from="E6" to="-E18" type="car_passenger"/>
    <trip id="car352" depart="352.00" from="-E36" to="-E55" type="car_passenger"/>
    <trip id="car353" depart="353.00" from="E47" to="E18" type="car_passenger"/>
    <trip id="car354" depart="354.00" from="-E52" to="-E25" type="car_passenger"/>
    <trip id="car355" depart="355.00" from="E39" to="E40" type="car_passenger"/>
    <trip id="car356" depart="356.00" from="E77" to="E0" type="car_passenger"/>
    <trip id="car357" depart="357.00" from="-E9" to="-E2" type="car_passenger"/>
    <trip id="car358" depart="358.00" from="-E14" to="-E75" type="car_passenger"/>
    <trip id="car359" depart="359.00" from="-E59" to="-E48" type="car_passenger"/>
    <trip id="car360" depart="360.00" from="-E20" to="E8" type="car_passenger"/>
    <trip id="car361" depart="361.00" from="E62" to="E19" type="car_passenger"/>