<?xml version="1.0" encoding="UTF-8"?>

<!-- generated on 2024-06-12 11:53:37.036832 by randomTrips.py v1_20_0+0002-343658e7c64
<configuration>
    <net-file value="F:\Project\Thesis\Thesis\Sumo\traci\new\new.net.xml"/>
    <output-trip-file value="F:\Project\Thesis\Thesis\Sumo\traci\new\car.trips.xml"/>
    <prefix value="passenger"/>
    <vehicle-class value="passenger"/>
    <random value="True"/>
    <random-depart value="True"/>
</configuration>
-->

<routes xmlns:xsi="http://www.w3.org/2001/XMLSchema-instance" xsi:noNamespaceSchemaLocation="http://sumo.dlr.de/xsd/routes_file.xsd">
    <vType id="passenger_passenger" vClass="passenger"/>
    <trip id="passenger0" depart="0.00" from="E38" to="-E56" type="passenger_passenger"/>
    <trip id="passenger1" depart="1.00" from="-E5" to="E54" type="passenger_passenger"/>
    <trip id="passenger2" depart="4.00" from="-E37" to="E62" type="passenger_passenger"/>
    <trip id="passenger3" depart="5.00" from="-E83" to="-E93" type="passenger_passenger"/>
    <trip id="passenger4" depart="6.00" from="E40" to="E70" type="passenger_passenger"/>
    <trip id="passenger5" depart="7.00" from="-E26" to="-E20" type="passenger_passenger"/>
    <trip id="passenger6" depart="10.00" from="-E24" to="E34" type="passenger_passenger"/>
    <trip id="passenger7" depart="12.00" from="E62" to="E0" type="passenger_passenger"/>
    <trip id="passenger8" depart="12.00" from="-E3" to="-E61" type="passenger_passenger"/>
    <trip id="passenger9" depart="15.00" from="E18" to="E59" type="passenger_passenger"/>
    <trip id="passenger10" depart="19.00" from="-E18" to="-E100" type="passenger_passenger"/>
    <trip id="passenger11" depart="20.00" from="E32" to="-E100" type="passenger_passenger"/>
    <trip id="passenger12" depart="22.00" from="-E77" to="E66" type="passenger_passenger"/>
    <trip id="passenger13" depart="23.00" from="-E107" to="-E0" type="passenger_passenger"/>
    <trip id="passenger14" depart="24.00" from="-E100" to="-E90" type="passenger_passenger"/>
    <trip id="passenger15" depart="27.00" from="-E34" to="E27" type="passenger_passenger"/>
    <trip id="passenger16" depart="28.00" from="-E106" to="-E15" type="passenger_passenger"/>
    <trip id="passenger17" depart="29.00" from="E29" to="E5" type="passenger_passenger"/>
    <trip id="passenger18" depart="29.00" from="-E63" to="-E62" type="passenger_passenger"/>
    <trip id="passenger19" depart="32.00" from="-E3" to="-E38" type="passenger_passenger"/>
    <trip id="passenger20" depart="33.00" from="E45" to="-E62" type="passenger_passenger"/>
    <trip id="passenger21" depart="34.00" from="E29" to="-E80" type="passenger_passenger"/>
    <trip id="passenger22" depart="35.00" from="E1" to="E39" type="passenger_passenger"/>
    <trip id="passenger23" depart="41.00" from="E82" to="-E93" type="passenger_passenger"/>
    <trip id="passenger24" depart="43.00" from="E101" to="E107" type="passenger_passenger"/>
    <trip id="passenger25" depart="44.00" from="E91" to="E76" type="passenger_passenger"/>
    <trip id="passenger26" depart="44.00" from="-E81" to="E7" type="passenger_passenger"/>
    <trip id="passenger27" depart="45.00" from="-E30" to="E90" type="passenger_passenger"/>
    <trip id="passenger28" depart="45.00" from="E52" to="-E10" type="passenger_passenger"/>
    <trip id="passenger29" depart="45.00" from="E5" to="E59" type="passenger_passenger"/>
    <trip id="passenger30" depart="46.00" from="-E40" to="E81" type="passenger_passenger"/>
    <trip id="passenger31" depart="46.00" from="E57" to="-E63" type="passenger_passenger"/>
    <trip id="passenger32" depart="47.00" from="E59" to="E64" type="passenger_passenger"/>
    <trip id="passenger33" depart="47.00" from="E63" to="E13" type="passenger_passenger"/>
    <trip id="passenger34" depart="47.00" from="-E43" to="E12" type="passenger_passenger"/>
    <trip id="passenger35" depart="49.00" from="-E21" to="E62" type="passenger_passenger"/>
    <trip id="passenger36" depart="49.00" from="E67" to="-E57" type="passenger_passenger"/>
    <trip id="passenger37" depart="49.00" from="-E25" to="-E82" type="passenger_passenger"/>
    <trip id="passenger38" depart="50.00" from="E63" to="E43" type="passenger_passenger"/>
    <trip id="passenger39" depart="50.00" from="E80" to="-E38" type="passenger_passenger"/>
    <trip id="passenger40" depart="52.00" from="-E68" to="-E72" type="passenger_passenger"/>
    <trip id="passenger41" depart="52.00" from="-E3" to="E79" type="passenger_passenger"/>
    <trip id="passenger42" depart="54.00" from="E4" to="E66" type="passenger_passenger"/>
    <trip id="passenger43" depart="55.00" from="E99" to="-E32" type="passenger_passenger"/>
    <trip id="passenger44" depart="56.00" from="E87" to="-E99" type="passenger_passenger"/>
    <trip id="passenger45" depart="57.00" from="-E95" to="E106" type="passenger_passenger"/>
    <trip id="passenger46" depart="57.00" from="-E29" to="-E54" type="passenger_passenger"/>
    <trip id="passenger47" depart="59.00" from="E72" to="-E49" type="passenger_passenger"/>
    <trip id="passenger48" depart="61.00" from="E83" to="E55" type="passenger_passenger"/>
    <trip id="passenger49" depart="62.00" from="-E70" to="-E44" type="passenger_passenger"/>
    <trip id="passenger50" depart="63.00" from="-E7" to="-E30" type="passenger_passenger"/>
    <trip id="passenger51" depart="64.00" from="-E53" to="E12" type="passenger_passenger"/>
    <trip id="passenger52" depart="67.00" from="-E79" to="-E9" type="passenger_passenger"/>
    <trip id="passenger53" depart="68.00" from="E98" to="E85" type="passenger_passenger"/>
    <trip id="passenger54" depart="69.00" from="-E86" to="-E5" type="passenger_passenger"/>
    <trip id="passenger55" depart="69.00" from="-E90" to="E31" type="passenger_passenger"/>
    <trip id="passenger56" depart="69.00" from="E46" to="E77" type="passenger_passenger"/>
    <trip id="passenger57" depart="69.00" from="-E97" to="-E100" type="passenger_passenger"/>
    <trip id="passenger58" depart="70.00" from="-E73" to="-E52" type="passenger_passenger"/>
    <trip id="passenger59" depart="72.00" from="-E27" to="-E67" type="passenger_passenger"/>
    <trip id="passenger60" depart="72.00" from="-E19" to="-E1" type="passenger_passenger"/>
    <trip id="passenger61" depart="73.00" from="E86" to="-E71" type="passenger_passenger"/>
    <trip id="passenger62" depart="73.00" from="-E107" to="E57" type="passenger_passenger"/>
    <trip id="passenger63" depart="74.00" from="-E62" to="E76" type="passenger_passenger"/>
    <trip id="passenger64" depart="74.00" from="E37" to="E78" type="passenger_passenger"/>
    <trip id="passenger65" depart="74.00" from="-E32" to="-E22" type="passenger_passenger"/>
    <trip id="passenger66" depart="75.00" from="-E54" to="-E45" type="passenger_passenger"/>
    <trip id="passenger67" depart="75.00" from="E27" to="-E0" type="passenger_passenger"/>
    <trip id="passenger68" depart="76.00" from="-E49" to="-E36" type="passenger_passenger"/>
    <trip id="passenger69" depart="77.00" from="-E53" to="E31" type="passenger_passenger"/>
    <trip id="passenger70" depart="78.00" from="E8" to="-E66" type="passenger_passenger"/>
    <trip id="passenger71" depart="78.00" from="-E73" to="-E34" type="passenger_passenger"/>
    <trip id="passenger72" depart="79.00" from="E87" to="E15" type="passenger_passenger"/>
    <trip id="passenger73" depart="80.00" from="E1" to="-E19" type="passenger_passenger"/>
    <trip id="passenger74" depart="80.00" from="E37" to="-E14" type="passenger_passenger"/>
    <trip id="passenger75" depart="80.00" from="E58" to="-E70" type="passenger_passenger"/>
    <trip id="passenger76" depart="81.00" from="E104" to="E33" type="passenger_passenger"/>
    <trip id="passenger77" depart="81.00" from="E62" to="-E8" type="passenger_passenger"/>
    <trip id="passenger78" depart="81.00" from="-E101" to="-E104" type="passenger_passenger"/>
    <trip id="passenger79" depart="81.00" from="-E13" to="E107" type="passenger_passenger"/>
    <trip id="passenger80" depart="82.00" from="E33" to="E80" type="passenger_passenger"/>
    <trip id="passenger81" depart="83.00" from="-E14" to="-E10" type="passenger_passenger"/>
    <trip id="passenger82" depart="84.00" from="E19" to="-E79" type="passenger_passenger"/>
    <trip id="passenger83" depart="85.00" from="E3" to="E83" type="passenger_passenger"/>
    <trip id="passenger84" depart="85.00" from="-E59" to="E63" type="passenger_passenger"/>
    <trip id="passenger85" depart="86.00" from="E14" to="-E69" type="passenger_passenger"/>
    <trip id="passenger86" depart="87.00" from="-E62" to="-E9" type="passenger_passenger"/>
    <trip id="passenger87" depart="89.00" from="E66" to="E13" type="passenger_passenger"/>
    <trip id="passenger88" depart="89.00" from="-E100" to="-E6" type="passenger_passenger"/>
    <trip id="passenger89" depart="90.00" from="E26" to="E106" type="passenger_passenger"/>
    <trip id="passenger90" depart="90.00" from="-E80" to="-E28" type="passenger_passenger"/>
    <trip id="passenger91" depart="92.00" from="E0" to="E57" type="passenger_passenger"/>
    <trip id="passenger92" depart="92.00" from="-E34" to="E99" type="passenger_passenger"/>
    <trip id="passenger93" depart="92.00" from="-E28" to="E59" type="passenger_passenger"/>
    <trip id="passenger94" depart="93.00" from="-E29" to="-E95" type="passenger_passenger"/>
    <trip id="passenger95" depart="95.00" from="-E99" to="-E26" type="passenger_passenger"/>
    <trip id="passenger96" depart="96.00" from="-E33" to="E107" type="passenger_passenger"/>
    <trip id="passenger97" depart="97.00" from="E101" to="-E100" type="passenger_passenger"/>
    <trip id="passenger98" depart="97.00" from="-E63" to="E20" type="passenger_passenger"/>
    <trip id="passenger99" depart="98.00" from="-E53" to="-E104" type="passenger_passenger"/>
    <trip id="passenger100" depart="99.00" from="E22" to="E30" type="passenger_passenger"/>
    <trip id="passenger101" depart="101.00" from="E101" to="E23" type="passenger_passenger"/>
    <trip id="passenger102" depart="102.00" from="-E95" to="-E23" type="passenger_passenger"/>
    <trip id="passenger103" depart="102.00" from="-E8" to="E3" type="passenger_passenger"/>
    <trip id="passenger104" depart="103.00" from="-E34" to="-E45" type="passenger_passenger"/>
    <trip id="passenger105" depart="103.00" from="E19" to="-E15" type="passenger_passenger"/>
    <trip id="passenger106" depart="103.00" from="-E12" to="E98" type="passenger_passenger"/>
    <trip id="passenger107" depart="104.00" from="-E30" to="E90" type="passenger_passenger"/>
    <trip id="passenger108" depart="104.00" from="E61" to="-E13" type="passenger_passenger"/>
    <trip id="passenger109" depart="105.00" from="E10" to="-E11" type="passenger_passenger"/>
    <trip id="passenger110" depart="105.00" from="-E60" to="-E14" type="passenger_passenger"/>
    <trip id="passenger111" depart="106.00" from="E18" to="E37" type="passenger_passenger"/>
    <trip id="passenger112" depart="106.00" from="-E18" to="E29" type="passenger_passenger"/>
    <trip id="passenger113" depart="108.00" from="-E23" to="-E3" type="passenger_passenger"/>
    <trip id="passenger114" depart="110.00" from="E45" to="E24" type="passenger_passenger"/>
    <trip id="passenger115" depart="111.00" from="-E23" to="E86" type="passenger_passenger"/>
    <trip id="passenger116" depart="115.00" from="E44" to="E97" type="passenger_passenger"/>
    <trip id="passenger117" depart="115.00" from="E13" to="E7" type="passenger_passenger"/>
    <trip id="passenger118" depart="117.00" from="-E54" to="-E64" type="passenger_passenger"/>
    <trip id="passenger119" depart="119.00" from="E107" to="E19" type="passenger_passenger"/>
    <trip id="passenger120" depart="120.00" from="-E11" to="-E5" type="passenger_passenger"/>
    <trip id="passenger121" depart="122.00" from="E67" to="-E5" type="passenger_passenger"/>
    <trip id="passenger122" depart="122.00" from="-E34" to="-E14" type="passenger_passenger"/>
    <trip id="passenger123" depart="123.00" from="E91" to="E77" type="passenger_passenger"/>
    <trip id="passenger124" depart="124.00" from="-E98" to="E54" type="passenger_passenger"/>
    <trip id="passenger125" depart="125.00" from="-E28" to="-E30" type="passenger_passenger"/>
    <trip id="passenger126" depart="125.00" from="E26" to="E65" type="passenger_passenger"/>
    <trip id="passenger127" depart="127.00" from="-E74" to="-E46" type="passenger_passenger"/>
    <trip id="passenger128" depart="128.00" from="E90" to="E35" type="passenger_passenger"/>
    <trip id="passenger129" depart="129.00" from="-E73" to="-E25" type="passenger_passenger"/>
    <trip id="passenger130" depart="132.00" from="-E71" to="-E70" type="passenger_passenger"/>
    <trip id="passenger131" depart="132.00" from="-E69" to="E55" type="passenger_passenger"/>
    <trip id="passenger132" depart="133.00" from="-E9" to="E45" type="passenger_passenger"/>
    <trip id="passenger133" depart="134.00" from="E2" to="E1" type="passenger_passenger"/>
    <trip id="passenger134" depart="138.00" from="E12" to="-E74" type="passenger_passenger"/>
    <trip id="passenger135" depart="139.00" from="E32" to="E20" type="passenger_passenger"/>
    <trip id="passenger136" depart="140.00" from="E72" to="E60" type="passenger_passenger"/>
    <trip id="passenger137" depart="140.00" from="E36" to="-E106" type="passenger_passenger"/>
    <trip id="passenger138" depart="140.00" from="E2" to="E83" type="passenger_passenger"/>
    <trip id="passenger139" depart="141.00" from="-E105" to="E27" type="passenger_passenger"/>
    <trip id="passenger140" depart="142.00" from="-E70" to="E74" type="passenger_passenger"/>
    <trip id="passenger141" depart="142.00" from="E33" to="-E72" type="passenger_passenger"/>
    <trip id="passenger142" depart="143.00" from="-E35" to="E85" type="passenger_passenger"/>
    <trip id="passenger143" depart="143.00" from="E66" to="-E8" type="passenger_passenger"/>
    <trip id="passenger144" depart="147.00" from="-E63" to="E105" type="passenger_passenger"/>
    <trip id="passenger145" depart="148.00" from="-E38" to="E38" type="passenger_passenger"/>
    <trip id="passenger146" depart="149.00" from="E10" to="E105" type="passenger_passenger"/>
    <trip id="passenger147" depart="149.00" from="E37" to="-E8" type="passenger_passenger"/>
    <trip id="passenger148" depart="150.00" from="E14" to="-E21" type="passenger_passenger"/>
    <trip id="passenger149" depart="150.00" from="E45" to="E18" type="passenger_passenger"/>
    <trip id="passenger150" depart="151.00" from="-E0" to="E27" type="passenger_passenger"/>
    <trip id="passenger151" depart="151.00" from="E70" to="E8" type="passenger_passenger"/>
    <trip id="passenger152" depart="152.00" from="E57" to="E11" type="passenger_passenger"/>
    <trip id="passenger153" depart="155.00" from="E6" to="-E44" type="passenger_passenger"/>
    <trip id="passenger154" depart="156.00" from="-E49" to="-E76" type="passenger_passenger"/>
    <trip id="passenger155" depart="156.00" from="E70" to="-E62" type="passenger_passenger"/>
    <trip id="passenger156" depart="157.00" from="-E78" to="E103" type="passenger_passenger"/>
    <trip id="passenger157" depart="158.00" from="E58" to="-E85" type="passenger_passenger"/>
    <trip id="passenger158" depart="159.00" from="-E31" to="E5" type="passenger_passenger"/>
    <trip id="passenger159" depart="160.00" from="-E69" to="-E12" type="passenger_passenger"/>
    <trip id="passenger160" depart="161.00" from="-E87" to="-E99" type="passenger_passenger"/>
    <trip id="passenger161" depart="161.00" from="E61" to="E103" type="passenger_passenger"/>
    <trip id="passenger162" depart="162.00" from="E46" to="-E79" type="passenger_passenger"/>
    <trip id="passenger163" depart="163.00" from="E37" to="E89" type="passenger_passenger"/>
    <trip id="passenger164" depart="163.00" from="E66" to="E89" type="passenger_passenger"/>
    <trip id="passenger165" depart="165.00" from="E90" to="-E46" type="passenger_passenger"/>
    <trip id="passenger166" depart="165.00" from="-E21" to="E58" type="passenger_passenger"/>
    <trip id="passenger167" depart="166.00" from="-E83" to="E20" type="passenger_passenger"/>
    <trip id="passenger168" depart="166.00" from="E45" to="E69" type="passenger_passenger"/>
    <trip id="passenger169" depart="166.00" from="E87" to="E85" type="passenger_passenger"/>
    <trip id="passenger170" depart="167.00" from="-E105" to="-E82" type="passenger_passenger"/>
    <trip id="passenger171" depart="167.00" from="E81" to="-E78" type="passenger_passenger"/>
    <trip id="passenger172" depart="169.00" from="E80" to="E22" type="passenger_passenger"/>
    <trip id="passenger173" depart="171.00" from="-E98" to="-E27" type="passenger_passenger"/>
    <trip id="passenger174" depart="171.00" from="E95" to="E0" type="passenger_passenger"/>
    <trip id="passenger175" depart="171.00" from="-E55" to="-E95" type="passenger_passenger"/>
    <trip id="passenger176" depart="175.00" from="-E25" to="-E66" type="passenger_passenger"/>
    <trip id="passenger177" depart="176.00" from="-E58" to="-E64" type="passenger_passenger"/>
    <trip id="passenger178" depart="178.00" from="-E1" to="-E74" type="passenger_passenger"/>
    <trip id="passenger179" depart="178.00" from="-E3" to="-E91" type="passenger_passenger"/>
    <trip id="passenger180" depart="179.00" from="E76" to="E102" type="passenger_passenger"/>
    <trip id="passenger181" depart="180.00" from="-E21" to="E44" type="passenger_passenger"/>
    <trip id="passenger182" depart="181.00" from="E71" to="-E90" type="passenger_passenger"/>
    <trip id="passenger183" depart="182.00" from="-E25" to="-E71" type="passenger_passenger"/>
    <trip id="passenger184" depart="184.00" from="E102" to="E4" type="passenger_passenger"/>
    <trip id="passenger185" depart="186.00" from="E106" to="-E107" type="passenger_passenger"/>
    <trip id="passenger186" depart="187.00" from="E60" to="E8" type="passenger_passenger"/>
    <trip id="passenger187" depart="187.00" from="-E107" to="E1" type="passenger_passenger"/>
    <trip id="passenger188" depart="190.00" from="-E89" to="E49" type="passenger_passenger"/>
    <trip id="passenger189" depart="191.00" from="E44" to="E62" type="passenger_passenger"/>
    <trip id="passenger190" depart="191.00" from="E49" to="E76" type="passenger_passenger"/>
    <trip id="passenger191" depart="192.00" from="E58" to="E101" type="passenger_passenger"/>
    <trip id="passenger192" depart="194.00" from="E45" to="-E41" type="passenger_passenger"/>
    <trip id="passenger193" depart="194.00" from="-E33" to="-E60" type="passenger_passenger"/>
    <trip id="passenger194" depart="194.00" from="-E10" to="E56" type="passenger_passenger"/>
    <trip id="passenger195" depart="198.00" from="E13" to="E61" type="passenger_passenger"/>
    <trip id="passenger196" depart="198.00" from="E98" to="E31" type="passenger_passenger"/>
    <trip id="passenger197" depart="198.00" from="E39" to="-E68" type="passenger_passenger"/>
    <trip id="passenger198" depart="200.00" from="-E35" to="-E7" type="passenger_passenger"/>
    <trip id="passenger199" depart="202.00" from="-E61" to="E8" type="passenger_passenger"/>
    <trip id="passenger200" depart="203.00" from="-E9" to="-E7" type="passenger_passenger"/>
    <trip id="passenger201" depart="204.00" from="-E34" to="E69" type="passenger_passenger"/>
    <trip id="passenger202" depart="207.00" from="E6" to="E6" type="passenger_passenger"/>
    <trip id="passenger203" depart="207.00" from="E21" to="E44" type="passenger_passenger"/>
    <trip id="passenger204" depart="208.00" from="-E23" to="-E35" type="passenger_passenger"/>
    <trip id="passenger205" depart="208.00" from="E73" to="E10" type="passenger_passenger"/>
    <trip id="passenger206" depart="208.00" from="E101" to="E97" type="passenger_passenger"/>
    <trip id="passenger207" depart="208.00" from="E95" to="-E30" type="passenger_passenger"/>
    <trip id="passenger208" depart="209.00" from="E46" to="-E29" type="passenger_passenger"/>
    <trip id="passenger209" depart="209.00" from="E98" to="-E1" type="passenger_passenger"/>
    <trip id="passenger210" depart="211.00" from="-E53" to="E66" type="passenger_passenger"/>
    <trip id="passenger211" depart="212.00" from="-E44" to="E19" type="passenger_passenger"/>
    <trip id="passenger212" depart="213.00" from="-E14" to="-E3" type="passenger_passenger"/>
    <trip id="passenger213" depart="213.00" from="-E15" to="-E18" type="passenger_passenger"/>
    <trip id="passenger214" depart="215.00" from="-E39" to="E68" type="passenger_passenger"/>
    <trip id="passenger215" depart="217.00" from="E85" to="E34" type="passenger_passenger"/>
    <trip id="passenger216" depart="217.00" from="E93" to="E44" type="passenger_passenger"/>
    <trip id="passenger217" depart="217.00" from="-E45" to="E103" type="passenger_passenger"/>
    <trip id="passenger218" depart="221.00" from="E90" to="-E52" type="passenger_passenger"/>
    <trip id="passenger219" depart="222.00" from="E10" to="E3" type="passenger_passenger"/>
    <trip id="passenger220" depart="225.00" from="E57" to="-E95" type="passenger_passenger"/>
    <trip id="passenger221" depart="226.00" from="-E20" to="-E7" type="passenger_passenger"/>
    <trip id="passenger222" depart="226.00" from="E0" to="E24" type="passenger_passenger"/>
    <trip id="passenger223" depart="227.00" from="-E39" to="-E65" type="passenger_passenger"/>
    <trip id="passenger224" depart="227.00" from="-E7" to="-E83" type="passenger_passenger"/>
    <trip id="passenger225" depart="228.00" from="-E41" to="E72" type="passenger_passenger"/>
    <trip id="passenger226" depart="229.00" from="-E97" to="E8" type="passenger_passenger"/>
    <trip id="passenger227" depart="230.00" from="E89" to="E31" type="passenger_passenger"/>
    <trip id="passenger228" depart="230.00" from="-E58" to="-E107" type="passenger_passenger"/>
    <trip id="passenger229" depart="231.00" from="E2" to="E1" type="passenger_passenger"/>
    <trip id="passenger230" depart="231.00" from="-E97" to="E81" type="passenger_passenger"/>
    <trip id="passenger231" depart="231.00" from="E22" to="E3" type="passenger_passenger"/>
    <trip id="passenger232" depart="231.00" from="E30" to="E24" type="passenger_passenger"/>
    <trip id="passenger233" depart="232.00" from="E73" to="E7" type="passenger_passenger"/>
    <trip id="passenger234" depart="233.00" from="E5" to="E5" type="passenger_passenger"/>
    <trip id="passenger235" depart="233.00" from="E21" to="-E11" type="passenger_passenger"/>
    <trip id="passenger236" depart="233.00" from="E76" to="-E44" type="passenger_passenger"/>
    <trip id="passenger237" depart="233.00" from="-E103" to="-E53" type="passenger_passenger"/>
    <trip id="passenger238" depart="234.00" from="E82" to="E8" type="passenger_passenger"/>
    <trip id="passenger239" depart="235.00" from="E95" to="-E72" type="passenger_passenger"/>
    <trip id="passenger240" depart="236.00" from="-E4" to="-E68" type="passenger_passenger"/>
    <trip id="passenger241" depart="237.00" from="-E12" to="-E25" type="passenger_passenger"/>
    <trip id="passenger242" depart="237.00" from="-E26" to="E101" type="passenger_passenger"/>
    <trip id="passenger243" depart="238.00" from="-E37" to="E55" type="passenger_passenger"/>
    <trip id="passenger244" depart="240.00" from="-E67" to="E29" type="passenger_passenger"/>
    <trip id="passenger245" depart="240.00" from="-E38" to="-E43" type="passenger_passenger"/>
    <trip id="passenger246" depart="241.00" from="-E102" to="-E58" type="passenger_passenger"/>
    <trip id="passenger247" depart="242.00" from="-E59" to="-E27" type="passenger_passenger"/>
    <trip id="passenger248" depart="242.00" from="-E98" to="E10" type="passenger_passenger"/>
    <trip id="passenger249" depart="244.00" from="E3" to="-E22" type="passenger_passenger"/>
    <trip id="passenger250" depart="246.00" from="E19" to="E33" type="passenger_passenger"/>
    <trip id="passenger251" depart="246.00" from="E104" to="-E93" type="passenger_passenger"/>
    <trip id="passenger252" depart="248.00" from="-E35" to="E81" type="passenger_passenger"/>
    <trip id="passenger253" depart="249.00" from="E58" to="E101" type="passenger_passenger"/>
    <trip id="passenger254" depart="249.00" from="-E93" to="-E71" type="passenger_passenger"/>
    <trip id="passenger255" depart="250.00" from="E59" to="-E76" type="passenger_passenger"/>
    <trip id="passenger256" depart="250.00" from="-E3" to="E82" type="passenger_passenger"/>
    <trip id="passenger257" depart="251.00" from="-E89" to="E62" type="passenger_passenger"/>
    <trip id="passenger258" depart="251.00" from="-E36" to="E72" type="passenger_passenger"/>
    <trip id="passenger259" depart="254.00" from="E95" to="E5" type="passenger_passenger"/>
    <trip id="passenger260" depart="255.00" from="E87" to="E74" type="passenger_passenger"/>
    <trip id="passenger261" depart="255.00" from="E80" to="-E82" type="passenger_passenger"/>
    <trip id="passenger262" depart="255.00" from="-E61" to="-E0" type="passenger_passenger"/>
    <trip id="passenger263" depart="256.00" from="-E53" to="-E77" type="passenger_passenger"/>
    <trip id="passenger264" depart="256.00" from="E35" to="-E32" type="passenger_passenger"/>
    <trip id="passenger265" depart="258.00" from="E84" to="-E68" type="passenger_passenger"/>
    <trip id="passenger266" depart="258.00" from="-E12" to="-E34" type="passenger_passenger"/>
    <trip id="passenger267" depart="258.00" from="-E12" to="-E46" type="passenger_passenger"/>
    <trip id="passenger268" depart="259.00" from="-E89" to="E80" type="passenger_passenger"/>
    <trip id="passenger269" depart="260.00" from="-E34" to="-E99" type="passenger_passenger"/>
    <trip id="passenger270" depart="260.00" from="-E40" to="-E0" type="passenger_passenger"/>
    <trip id="passenger271" depart="261.00" from="E84" to="E22" type="passenger_passenger"/>
    <trip id="passenger272" depart="262.00" from="E6" to="E20" type="passenger_passenger"/>
    <trip id="passenger273" depart="262.00" from="-E34" to="-E46" type="passenger_passenger"/>
    <trip id="passenger274" depart="262.00" from="E59" to="-E78" type="passenger_passenger"/>
    <trip id="passenger275" depart="265.00" from="E34" to="-E4" type="passenger_passenger"/>
    <trip id="passenger276" depart="265.00" from="-E5" to="-E49" type="passenger_passenger"/>
    <trip id="passenger277" depart="265.00" from="E89" to="-E107" type="passenger_passenger"/>
    <trip id="passenger278" depart="266.00" from="-E58" to="E83" type="passenger_passenger"/>
    <trip id="passenger279" depart="266.00" from="-E61" to="-E11" type="passenger_passenger"/>
    <trip id="passenger280" depart="268.00" from="E86" to="-E39" type="passenger_passenger"/>
    <trip id="passenger281" depart="269.00" from="-E46" to="E19" type="passenger_passenger"/>
    <trip id="passenger282" depart="269.00" from="-E3" to="E95" type="passenger_passenger"/>
    <trip id="passenger283" depart="270.00" from="-E54" to="-E56" type="passenger_passenger"/>
    <trip id="passenger284" depart="270.00" from="-E66" to="-E12" type="passenger_passenger"/>
    <trip id="passenger285" depart="271.00" from="E106" to="E35" type="passenger_passenger"/>
    <trip id="passenger286" depart="271.00" from="E1" to="-E24" type="passenger_passenger"/>
    <trip id="passenger287" depart="271.00" from="E7" to="-E35" type="passenger_passenger"/>
    <trip id="passenger288" depart="274.00" from="E102" to="E59" type="passenger_passenger"/>
    <trip id="passenger289" depart="275.00" from="-E28" to="E44" type="passenger_passenger"/>
    <trip id="passenger290" depart="275.00" from="E1" to="E5" type="passenger_passenger"/>
    <trip id="passenger291" depart="275.00" from="E75" to="E0" type="passenger_passenger"/>
    <trip id="passenger292" depart="277.00" from="E61" to="-E30" type="passenger_passenger"/>
    <trip id="passenger293" depart="277.00" from="-E54" to="E20" type="passenger_passenger"/>
    <trip id="passenger294" depart="279.00" from="-E102" to="-E32" type="passenger_passenger"/>
    <trip id="passenger295" depart="279.00" from="-E75" to="E107" type="passenger_passenger"/>
    <trip id="passenger296" depart="280.00" from="-E89" to="E60" type="passenger_passenger"/>
    <trip id="passenger297" depart="281.00" from="E21" to="-E60" type="passenger_passenger"/>
    <trip id="passenger298" depart="282.00" from="-E45" to="E53" type="passenger_passenger"/>
    <trip id="passenger299" depart="282.00" from="-E33" to="E57" type="passenger_passenger"/>
    <trip id="passenger300" depart="282.00" from="-E28" to="E87" type="passenger_passenger"/>
    <trip id="passenger301" depart="283.00" from="-E72" to="E39" type="passenger_passenger"/>
    <trip id="passenger302" depart="286.00" from="E24" to="-E70" type="passenger_passenger"/>
    <trip id="passenger303" depart="286.00" from="E38" to="-E52" type="passenger_passenger"/>
    <trip id="passenger304" depart="287.00" from="E80" to="-E34" type="passenger_passenger"/>
    <trip id="passenger305" depart="290.00" from="-E76" to="-E72" type="passenger_passenger"/>
    <trip id="passenger306" depart="292.00" from="E107" to="E97" type="passenger_passenger"/>
    <trip id="passenger307" depart="292.00" from="-E4" to="E74" type="passenger_passenger"/>
    <trip id="passenger308" depart="292.00" from="-E72" to="-E63" type="passenger_passenger"/>
    <trip id="passenger309" depart="292.00" from="E86" to="E31" type="passenger_passenger"/>
    <trip id="passenger310" depart="293.00" from="-E98" to="E29" type="passenger_passenger"/>
    <trip id="passenger311" depart="293.00" from="-E6" to="-E2" type="passenger_passenger"/>
    <trip id="passenger312" depart="293.00" from="-E29" to="E58" type="passenger_passenger"/>
    <trip id="passenger313" depart="294.00" from="E33" to="-E68" type="passenger_passenger"/>