<?xml version="1.0" encoding="UTF-8"?>

<!-- generated on 2024-06-20 00:30:52 by Eclipse SUMO netedit Version 1.20.0
<configuration xmlns:xsi="http://www.w3.org/2001/XMLSchema-instance" xsi:noNamespaceSchemaLocation="http://sumo.dlr.de/xsd/neteditConfiguration.xsd">

    <input>
        <sumocfg-file value="F:\Project\Thesis\Thesis\Sumo\traci\new\new.sumocfg"/>
        <route-files value="F:\Project\Thesis\Thesis\Sumo\traci\new\bus.trips.xml"/>
        <sumo-net-file value="F:\Project\Thesis\Thesis\Sumo\traci\new\new.net.xml"/>
    </input>

    <output>
        <output-file value="F:\Project\Thesis\Thesis\Sumo\traci\new\new.net.xml"/>
    </output>

    <processing>
        <geometry.min-radius.fix.railways value="false"/>
        <geometry.max-grade.fix value="false"/>
        <offset.disable-normalization value="true"/>
        <lefthand value="0"/>
    </processing>

    <junctions>
        <no-turnarounds value="true"/>
        <junctions.corner-detail value="5"/>
        <junctions.limit-turn-speed value="5.50"/>
        <rectangular-lane-cut value="0"/>
    </junctions>

    <pedestrian>
        <walkingareas value="0"/>
    </pedestrian>

</configuration>
-->

<net version="1.20" junctionCornerDetail="5" limitTurnSpeed="5.50" xmlns:xsi="http://www.w3.org/2001/XMLSchema-instance" xsi:noNamespaceSchemaLocation="http://sumo.dlr.de/xsd/net_file.xsd">

    <location netOffset="0.00,0.00" convBoundary="-852.29,-2544.71,-316.74,162.19" origBoundary="-10000000000.00,-10000000000.00,10000000000.00,10000000000.00" projParameter="!"/>

    <edge id=":J0_0" function="internal">
        <lane id=":J0_0_0" index="0" speed="8.96" length="18.56" shape="-798.74,160.29 -803.79,159.49 -807.31,157.25 -809.30,153.59 -809.76,148.50"/>
        <lane id=":J0_0_1" index="1" speed="7.65" length="13.26" shape="-798.70,157.09 -802.30,156.52 -804.82,154.92 -806.24,152.31 -806.57,148.67"/>
    </edge>
    <edge id=":J0_2" function="internal">
        <lane id=":J0_2_0" index="0" speed="3.90" length="2.65" shape="-800.18,149.00 -800.11,149.73 -799.83,150.26 -799.32,150.57 -798.60,150.69"/>
        <lane id=":J0_2_1" index="1" speed="6.07" length="7.96" shape="-803.37,148.84 -803.18,151.02 -802.32,152.59 -800.81,153.54 -798.65,153.89"/>
    </edge>
    <edge id=":J1_0" function="internal">
        <lane id=":J1_0_0" index="0" speed="8.96" length="18.15" shape="-338.06,155.79 -338.80,160.71 -340.94,164.20 -344.48,166.26 -349.42,166.89"/>
        <lane id=":J1_0_1" index="1" speed="7.65" length="12.96" shape="-341.26,155.76 -341.79,159.28 -343.32,161.77 -345.85,163.24 -349.37,163.70"/>
    </edge>
    <edge id=":J1_2" function="internal">
        <lane id=":J1_2_0" index="0" speed="3.90" length="2.59" shape="-349.28,157.30 -348.57,157.21 -348.07,156.91 -347.76,156.41 -347.66,155.71"/>
        <lane id=":J1_2_1" index="1" speed="6.08" length="7.78" shape="-349.33,160.50 -347.21,160.22 -345.69,159.34 -344.78,157.84 -344.46,155.74"/>
    </edge>
    <edge id=":J10_0" function="internal">
        <lane id=":J10_0_0" index="0" speed="3.91" length="2.55" shape="-346.27,-597.96 -346.37,-598.65 -346.67,-599.15 -347.16,-599.45 -347.85,-599.56"/>
        <lane id=":J10_0_1" index="1" speed="6.08" length="7.65" shape="-343.07,-597.97 -343.37,-600.04 -344.26,-601.53 -345.74,-602.44 -347.81,-602.76"/>
    </edge>
    <edge id=":J10_2" function="internal">
        <lane id=":J10_2_0" index="0" speed="8.96" length="17.86" shape="-347.73,-609.16 -342.91,-608.41 -339.45,-606.30 -337.37,-602.83 -336.67,-597.99"/>
        <lane id=":J10_2_1" index="1" speed="7.66" length="12.76" shape="-347.77,-605.96 -344.32,-605.42 -341.86,-603.92 -340.37,-601.44 -339.87,-597.98"/>
    </edge>
    <edge id=":J11_0" function="internal">
        <lane id=":J11_0_0" index="0" speed="6.50" length="9.06" shape="-554.95,-602.09 -557.41,-601.77 -559.17,-600.73 -560.23,-598.98 -560.59,-596.52"/>
    </edge>
    <edge id=":J11_1" function="internal">
        <lane id=":J11_1_0" index="0" speed="13.89" length="20.86" shape="-554.95,-602.09 -575.78,-602.14"/>
        <lane id=":J11_1_1" index="1" speed="13.89" length="20.86" shape="-554.91,-605.29 -575.81,-605.34"/>
    </edge>
    <edge id=":J11_3" function="internal">
        <lane id=":J11_3_0" index="0" speed="13.89" length="20.99" shape="-575.85,-611.74 -554.83,-611.69"/>
        <lane id=":J11_3_1" index="1" speed="13.89" length="20.99" shape="-575.83,-608.54 -554.87,-608.49"/>
    </edge>
    <edge id=":J11_5" function="internal">
        <lane id=":J11_5_0" index="0" speed="9.24" length="5.21" shape="-575.83,-608.54 -570.67,-607.84"/>
    </edge>
    <edge id=":J11_8" function="internal">
        <lane id=":J11_8_0" index="0" speed="9.24" length="14.24" shape="-570.67,-607.84 -570.54,-607.82 -566.77,-605.58 -564.52,-601.82 -563.79,-596.53"/>
    </edge>
    <edge id=":J11_6" function="internal">
        <lane id=":J11_6_0" index="0" speed="6.48" length="9.03" shape="-570.19,-596.56 -570.53,-599.02 -571.57,-600.77 -573.32,-601.81 -575.78,-602.14"/>
    </edge>
    <edge id=":J11_7" function="internal">
        <lane id=":J11_7_0" index="0" speed="9.25" length="19.43" shape="-566.99,-596.55 -566.21,-601.83 -563.93,-605.58 -560.15,-607.80 -554.87,-608.49"/>
    </edge>
    <edge id=":J12_0" function="internal">
        <lane id=":J12_0_0" index="0" speed="8.96" length="18.18" shape="-813.45,-598.65 -812.83,-603.60 -810.77,-607.15 -807.27,-609.29 -802.34,-610.04"/>
        <lane id=":J12_0_1" index="1" speed="7.65" length="12.99" shape="-810.25,-598.71 -809.81,-602.24 -808.34,-604.78 -805.84,-606.31 -802.31,-606.84"/>
    </edge>
    <edge id=":J12_2" function="internal">
        <lane id=":J12_2_0" index="0" speed="3.90" length="2.60" shape="-802.27,-600.44 -802.97,-600.33 -803.47,-600.03 -803.76,-599.52 -803.85,-598.81"/>
        <lane id=":J12_2_1" index="1" speed="6.08" length="7.79" shape="-802.29,-603.64 -804.40,-603.32 -805.90,-602.40 -806.79,-600.88 -807.05,-598.76"/>
    </edge>
    <edge id=":J13_0" function="internal">
        <lane id=":J13_0_0" index="0" speed="6.73" length="6.05" shape="-563.24,-459.12 -564.67,-459.79 -566.10,-460.02 -567.53,-459.83 -568.98,-459.22"/>
    </edge>
    <edge id=":J13_1" function="internal">
        <lane id=":J13_1_0" index="0" speed="9.88" length="12.86" shape="-561.56,-461.84 -564.20,-463.91 -566.08,-466.39 -567.20,-469.27 -567.56,-472.55"/>
    </edge>
    <edge id=":J13_2" function="internal">
        <lane id=":J13_2_0" index="0" speed="7.08" length="6.31" shape="-561.16,-472.52 -560.98,-470.92 -560.43,-469.52 -559.49,-468.30 -558.19,-467.28"/>
    </edge>
    <edge id=":J13_3" function="internal">
        <lane id=":J13_3_0" index="0" speed="10.87" length="16.20" shape="-561.16,-472.52 -561.67,-468.37 -563.14,-464.78 -565.58,-461.72 -568.98,-459.22"/>
        <lane id=":J13_3_1" index="1" speed="9.73" length="12.85" shape="-564.36,-472.53 -564.76,-469.25 -565.93,-466.40 -567.87,-463.98 -570.57,-461.99"/>
    </edge>
    <edge id=":J13_5" function="internal">
        <lane id=":J13_5_0" index="0" speed="6.90" length="6.14" shape="-573.76,-467.54 -572.46,-468.50 -571.52,-469.65 -570.96,-471.01 -570.76,-472.56"/>
        <lane id=":J13_5_1" index="1" speed="8.43" length="9.50" shape="-572.17,-464.76 -570.16,-466.24 -568.73,-468.03 -567.86,-470.13 -567.56,-472.55"/>
    </edge>
    <edge id=":J13_7" function="internal">
        <lane id=":J13_7_0" index="0" speed="9.59" length="3.08" shape="-572.17,-464.76 -569.34,-465.98"/>
    </edge>
    <edge id=":J13_8" function="internal">
        <lane id=":J13_8_0" index="0" speed="9.59" length="9.88" shape="-569.34,-465.98 -569.07,-466.09 -565.99,-466.50 -562.92,-465.99 -559.87,-464.56"/>
    </edge>
    <edge id=":J14_0" function="internal">
        <lane id=":J14_0_0" index="0" speed="8.95" length="18.93" shape="-810.55,-729.94 -815.73,-730.69 -819.32,-732.92 -821.32,-736.65 -821.73,-741.87"/>
        <lane id=":J14_0_1" index="1" speed="7.65" length="13.52" shape="-810.55,-733.14 -814.25,-733.67 -816.81,-735.27 -818.24,-737.93 -818.53,-741.66"/>
    </edge>
    <edge id=":J14_2" function="internal">
        <lane id=":J14_2_0" index="0" speed="3.90" length="2.70" shape="-812.15,-741.24 -812.09,-740.50 -811.80,-739.97 -811.29,-739.65 -810.55,-739.54"/>
        <lane id=":J14_2_1" index="1" speed="6.07" length="8.11" shape="-815.34,-741.45 -815.17,-739.22 -814.31,-737.62 -812.77,-736.66 -810.55,-736.34"/>
    </edge>
    <edge id=":J15_0" function="internal">
        <lane id=":J15_0_0" index="0" speed="13.89" length="20.72" shape="-573.95,-729.85 -594.66,-729.94"/>
        <lane id=":J15_0_1" index="1" speed="13.89" length="20.72" shape="-573.92,-733.05 -594.66,-733.14"/>
    </edge>
    <edge id=":J15_2" function="internal">
        <lane id=":J15_2_0" index="0" speed="9.29" length="4.85" shape="-573.92,-733.05 -578.72,-733.78"/>
    </edge>
    <edge id=":J15_8" function="internal">
        <lane id=":J15_8_0" index="0" speed="9.29" length="14.48" shape="-578.72,-733.78 -579.14,-733.85 -582.87,-736.13 -585.11,-739.89 -585.86,-745.14"/>
    </edge>
    <edge id=":J15_3" function="internal">
        <lane id=":J15_3_0" index="0" speed="6.55" length="9.08" shape="-579.46,-745.15 -579.11,-742.68 -578.06,-740.90 -576.31,-739.83 -573.87,-739.45"/>
    </edge>
    <edge id=":J15_4" function="internal">
        <lane id=":J15_4_0" index="0" speed="9.26" length="19.36" shape="-582.66,-745.15 -583.41,-739.89 -585.65,-736.14 -589.40,-733.89 -594.66,-733.14"/>
    </edge>
    <edge id=":J15_5" function="internal">
        <lane id=":J15_5_0" index="0" speed="6.51" length="9.03" shape="-594.66,-739.54 -592.21,-739.89 -590.46,-740.94 -589.41,-742.69 -589.06,-745.14"/>
    </edge>
    <edge id=":J15_6" function="internal">
        <lane id=":J15_6_0" index="0" speed="13.89" length="20.77" shape="-594.66,-739.54 -573.87,-739.45"/>
        <lane id=":J15_6_1" index="1" speed="13.89" length="20.77" shape="-594.66,-736.34 -573.90,-736.25"/>
    </edge>
    <edge id=":J16_0" function="internal">
        <lane id=":J16_0_0" index="0" speed="8.96" length="18.16" shape="-334.66,-739.13 -335.36,-734.19 -337.48,-730.68 -341.01,-728.60 -345.95,-727.93"/>
        <lane id=":J16_0_1" index="1" speed="7.65" length="12.97" shape="-337.86,-739.13 -338.36,-735.61 -339.88,-733.10 -342.40,-731.61 -345.92,-731.13"/>
    </edge>
    <edge id=":J16_2" function="internal">
        <lane id=":J16_2_0" index="0" speed="3.90" length="2.59" shape="-345.87,-737.53 -345.16,-737.63 -344.66,-737.93 -344.36,-738.43 -344.26,-739.13"/>
        <lane id=":J16_2_1" index="1" speed="6.08" length="7.78" shape="-345.90,-734.33 -343.78,-734.62 -342.27,-735.51 -341.36,-737.02 -341.06,-739.13"/>
    </edge>
    <edge id=":J17_0" function="internal">
        <lane id=":J17_0_0" index="0" speed="13.89" length="20.76" shape="-334.47,-928.44 -334.53,-907.68"/>
        <lane id=":J17_0_1" index="1" speed="13.89" length="20.76" shape="-337.67,-928.45 -337.73,-907.68"/>
    </edge>
    <edge id=":J17_2" function="internal">
        <lane id=":J17_2_0" index="0" speed="9.25" length="4.95" shape="-337.67,-928.45 -338.40,-923.56"/>
    </edge>
    <edge id=":J17_8" function="internal">
        <lane id=":J17_8_0" index="0" speed="9.25" length="14.45" shape="-338.40,-923.56 -338.45,-923.19 -340.73,-919.45 -344.50,-917.23 -349.77,-916.53"/>
    </edge>
    <edge id=":J17_3" function="internal">
        <lane id=":J17_3_0" index="0" speed="6.49" length="9.03" shape="-349.71,-922.93 -347.25,-923.25 -345.49,-924.29 -344.43,-926.03 -344.07,-928.48"/>
    </edge>
    <edge id=":J17_4" function="internal">
        <lane id=":J17_4_0" index="0" speed="9.29" length="19.36" shape="-349.74,-919.73 -344.48,-918.93 -340.73,-916.65 -338.48,-912.90 -337.73,-907.68"/>
    </edge>
    <edge id=":J17_5" function="internal">
        <lane id=":J17_5_0" index="0" speed="6.55" length="9.11" shape="-344.13,-907.68 -344.48,-910.13 -345.55,-911.89 -347.32,-912.95 -349.81,-913.33"/>
    </edge>
    <edge id=":J17_6" function="internal">
        <lane id=":J17_6_0" index="0" speed="13.89" length="20.79" shape="-344.13,-907.68 -344.07,-928.48"/>
        <lane id=":J17_6_1" index="1" speed="13.89" length="20.79" shape="-340.93,-907.68 -340.87,-928.46"/>
    </edge>
    <edge id=":J18_0" function="internal">
        <lane id=":J18_0_0" index="0" speed="8.96" length="18.08" shape="-344.96,-1088.78 -340.06,-1088.06 -336.57,-1085.95 -334.48,-1082.44 -333.80,-1077.53"/>
        <lane id=":J18_0_1" index="1" speed="7.66" length="12.92" shape="-344.97,-1085.58 -341.47,-1085.07 -338.97,-1083.56 -337.48,-1081.05 -337.00,-1077.54"/>
    </edge>
    <edge id=":J18_2" function="internal">
        <lane id=":J18_2_0" index="0" speed="3.90" length="2.58" shape="-343.40,-1077.57 -343.50,-1078.27 -343.79,-1078.78 -344.29,-1079.08 -344.99,-1079.18"/>
        <lane id=":J18_2_1" index="1" speed="6.08" length="7.75" shape="-340.20,-1077.56 -340.49,-1079.66 -341.38,-1081.17 -342.88,-1082.07 -344.98,-1082.38"/>
    </edge>
    <edge id=":J19_0" function="internal">
        <lane id=":J19_0_0" index="0" speed="6.53" length="9.10" shape="-573.61,-1079.88 -576.06,-1079.53 -577.82,-1078.47 -578.87,-1076.70 -579.23,-1074.21"/>
    </edge>
    <edge id=":J19_1" function="internal">
        <lane id=":J19_1_0" index="0" speed="13.89" length="20.84" shape="-573.61,-1079.88 -594.43,-1079.80"/>
        <lane id=":J19_1_1" index="1" speed="13.89" length="20.84" shape="-573.60,-1083.08 -594.47,-1083.00"/>
    </edge>
    <edge id=":J19_3" function="internal">
        <lane id=":J19_3_0" index="0" speed="13.89" length="20.93" shape="-594.53,-1089.40 -573.58,-1089.48"/>
        <lane id=":J19_3_1" index="1" speed="13.89" length="20.93" shape="-594.50,-1086.20 -573.59,-1086.28"/>
    </edge>
    <edge id=":J19_5" function="internal">
        <lane id=":J19_5_0" index="0" speed="9.24" length="5.18" shape="-594.50,-1086.20 -589.37,-1085.52"/>
    </edge>
    <edge id=":J19_8" function="internal">
        <lane id=":J19_8_0" index="0" speed="9.24" length="14.27" shape="-589.37,-1085.52 -589.21,-1085.50 -585.43,-1083.27 -583.17,-1079.51 -582.43,-1074.22"/>
    </edge>
    <edge id=":J19_6" function="internal">
        <lane id=":J19_6_0" index="0" speed="6.48" length="9.03" shape="-588.83,-1074.24 -589.17,-1076.69 -590.22,-1078.44 -591.98,-1079.48 -594.43,-1079.80"/>
    </edge>
    <edge id=":J19_7" function="internal">
        <lane id=":J19_7_0" index="0" speed="9.27" length="19.42" shape="-585.63,-1074.23 -584.86,-1079.52 -582.60,-1083.28 -578.85,-1085.54 -573.59,-1086.28"/>
    </edge>
    <edge id=":J2_0" function="internal">
        <lane id=":J2_0_0" index="0" speed="13.89" length="20.78" shape="-336.59,-17.70 -336.79,3.08"/>
        <lane id=":J2_0_1" index="1" speed="13.89" length="20.78" shape="-339.79,-17.73 -339.99,3.05"/>
    </edge>
    <edge id=":J2_2" function="internal">
        <lane id=":J2_2_0" index="0" speed="9.25" length="4.98" shape="-339.79,-17.73 -340.55,-12.81"/>
    </edge>
    <edge id=":J2_8" function="internal">
        <lane id=":J2_8_0" index="0" speed="9.25" length="14.41" shape="-340.55,-12.81 -340.60,-12.48 -342.89,-8.75 -346.68,-6.55 -351.95,-5.88"/>
    </edge>
    <edge id=":J2_3" function="internal">
        <lane id=":J2_3_0" index="0" speed="6.50" length="9.03" shape="-351.86,-12.28 -349.40,-12.59 -347.64,-13.61 -346.57,-15.35 -346.19,-17.80"/>
    </edge>
    <edge id=":J2_4" function="internal">
        <lane id=":J2_4_0" index="0" speed="9.28" length="19.36" shape="-351.90,-9.08 -346.65,-8.25 -342.92,-5.95 -340.69,-2.19 -339.99,3.05"/>
    </edge>
    <edge id=":J2_5" function="internal">
        <lane id=":J2_5_0" index="0" speed="6.54" length="9.09" shape="-346.39,3.00 -346.72,0.55 -347.77,-1.22 -349.53,-2.29 -352.00,-2.68"/>
    </edge>
    <edge id=":J2_6" function="internal">
        <lane id=":J2_6_0" index="0" speed="13.89" length="20.79" shape="-346.39,3.00 -346.19,-17.80"/>
        <lane id=":J2_6_1" index="1" speed="13.89" length="20.79" shape="-343.19,3.02 -342.99,-17.77"/>
    </edge>
    <edge id=":J20_0" function="internal">
        <lane id=":J20_0_0" index="0" speed="3.91" length="2.53" shape="-796.14,-1077.71 -796.82,-1077.61 -797.31,-1077.31 -797.62,-1076.83 -797.72,-1076.14"/>
        <lane id=":J20_0_1" index="1" speed="6.08" length="7.58" shape="-796.17,-1080.91 -798.22,-1080.60 -799.69,-1079.71 -800.60,-1078.25 -800.92,-1076.20"/>
    </edge>
    <edge id=":J20_2" function="internal">
        <lane id=":J20_2_0" index="0" speed="8.97" length="17.69" shape="-807.32,-1076.32 -806.56,-1081.09 -804.45,-1084.51 -801.01,-1086.58 -796.24,-1087.31"/>
        <lane id=":J20_2_1" index="1" speed="7.66" length="12.64" shape="-804.12,-1076.26 -803.58,-1079.67 -802.07,-1082.11 -799.62,-1083.59 -796.21,-1084.11"/>
    </edge>
    <edge id=":J21_0" function="internal">
        <lane id=":J21_0_0" index="0" speed="6.86" length="9.56" shape="-794.79,-913.71 -797.50,-913.34 -799.48,-912.30 -800.74,-910.58 -801.28,-908.18"/>
    </edge>
    <edge id=":J21_1" function="internal">
        <lane id=":J21_1_0" index="0" speed="9.21" length="19.57" shape="-794.82,-916.91 -800.16,-917.62 -803.94,-919.88 -806.16,-923.68 -806.83,-929.02"/>
    </edge>
    <edge id=":J21_2" function="internal">
        <lane id=":J21_2_0" index="0" speed="6.45" length="9.03" shape="-800.43,-928.90 -800.12,-926.44 -799.09,-924.68 -797.35,-923.64 -794.89,-923.31"/>
    </edge>
    <edge id=":J21_3" function="internal">
        <lane id=":J21_3_0" index="0" speed="13.89" length="20.66" shape="-800.43,-928.90 -801.28,-908.18"/>
        <lane id=":J21_3_1" index="1" speed="13.89" length="20.66" shape="-803.63,-928.96 -804.47,-908.39"/>
    </edge>
    <edge id=":J21_5" function="internal">
        <lane id=":J21_5_0" index="0" speed="13.89" length="20.37" shape="-810.86,-908.80 -810.03,-929.08"/>
        <lane id=":J21_5_1" index="1" speed="13.89" length="20.37" shape="-807.66,-908.60 -806.83,-929.02"/>
    </edge>
    <edge id=":J21_7" function="internal">
        <lane id=":J21_7_0" index="0" speed="9.51" length="4.17" shape="-807.66,-908.60 -806.78,-912.67"/>
    </edge>
    <edge id=":J21_8" function="internal">
        <lane id=":J21_8_0" index="0" speed="9.51" length="15.16" shape="-806.78,-912.67 -806.58,-913.59 -804.09,-917.17 -800.18,-919.35 -794.85,-920.11"/>
    </edge>
    <edge id=":J22_0" function="internal">
        <lane id=":J22_0_0" index="0" speed="6.49" length="9.05" shape="-589.23,-910.07 -589.58,-912.53 -590.64,-914.28 -592.39,-915.32 -594.85,-915.65"/>
    </edge>
    <edge id=":J22_1" function="internal">
        <lane id=":J22_1_0" index="0" speed="13.89" length="20.84" shape="-589.23,-910.07 -589.21,-930.91"/>
        <lane id=":J22_1_1" index="1" speed="13.89" length="20.84" shape="-586.03,-910.08 -586.01,-930.91"/>
    </edge>
    <edge id=":J22_3" function="internal">
        <lane id=":J22_3_0" index="0" speed="9.24" length="5.07" shape="-586.03,-910.08 -585.32,-915.09"/>
    </edge>
    <edge id=":J22_16" function="internal">
        <lane id=":J22_16_0" index="0" speed="9.24" length="14.37" shape="-585.32,-915.09 -585.28,-915.36 -583.02,-919.11 -579.24,-921.34 -573.95,-922.04"/>
    </edge>
    <edge id=":J22_4" function="internal">
        <lane id=":J22_4_0" index="0" speed="6.48" length="9.03" shape="-574.02,-915.64 -576.47,-915.32 -578.23,-914.28 -579.28,-912.54 -579.63,-910.08"/>
    </edge>
    <edge id=":J22_5" function="internal">
        <lane id=":J22_5_0" index="0" speed="13.89" length="20.86" shape="-574.02,-915.64 -594.85,-915.65"/>
        <lane id=":J22_5_1" index="1" speed="13.89" length="20.86" shape="-573.98,-918.84 -594.88,-918.85"/>
    </edge>
    <edge id=":J22_7" function="internal">
        <lane id=":J22_7_0" index="0" speed="9.29" length="4.74" shape="-573.98,-918.84 -578.67,-919.55"/>
    </edge>
    <edge id=":J22_17" function="internal">
        <lane id=":J22_17_0" index="0" speed="9.29" length="14.65" shape="-578.67,-919.55 -579.26,-919.64 -583.02,-921.92 -585.27,-925.67 -586.01,-930.91"/>
    </edge>
    <edge id=":J22_8" function="internal">
        <lane id=":J22_8_0" index="0" speed="6.56" length="9.13" shape="-579.61,-930.89 -579.26,-928.44 -578.20,-926.68 -576.41,-925.62 -573.92,-925.24"/>
    </edge>
    <edge id=":J22_9" function="internal">
        <lane id=":J22_9_0" index="0" speed="13.89" length="20.81" shape="-579.61,-930.89 -579.63,-910.08"/>
        <lane id=":J22_9_1" index="1" speed="13.89" length="20.81" shape="-582.81,-930.90 -582.83,-910.08"/>
    </edge>
    <edge id=":J22_11" function="internal">
        <lane id=":J22_11_0" index="0" speed="9.31" length="4.92" shape="-582.81,-930.90 -583.53,-926.03"/>
    </edge>
    <edge id=":J22_18" function="internal">
        <lane id=":J22_18_0" index="0" speed="9.31" length="14.47" shape="-583.53,-926.03 -583.58,-925.67 -585.85,-921.92 -589.61,-919.65 -594.88,-918.85"/>
    </edge>
    <edge id=":J22_12" function="internal">
        <lane id=":J22_12_0" index="0" speed="6.58" length="9.16" shape="-594.94,-925.25 -592.44,-925.62 -590.65,-926.69 -589.58,-928.46 -589.21,-930.91"/>
    </edge>
    <edge id=":J22_13" function="internal">
        <lane id=":J22_13_0" index="0" speed="13.89" length="20.99" shape="-594.94,-925.25 -573.92,-925.24"/>
        <lane id=":J22_13_1" index="1" speed="13.89" length="20.99" shape="-594.91,-922.05 -573.95,-922.04"/>
    </edge>
    <edge id=":J22_15" function="internal">
        <lane id=":J22_15_0" index="0" speed="9.25" length="5.20" shape="-594.91,-922.05 -589.75,-921.36"/>
    </edge>
    <edge id=":J22_19" function="internal">
        <lane id=":J22_19_0" index="0" speed="9.25" length="14.23" shape="-589.75,-921.36 -589.63,-921.34 -585.86,-919.11 -583.59,-915.36 -582.83,-910.08"/>
    </edge>
    <edge id=":J29_0" function="internal">
        <lane id=":J29_0_0" index="0" speed="8.96" length="17.90" shape="-825.45,-1239.61 -830.31,-1240.20 -833.84,-1242.20 -836.02,-1245.62 -836.87,-1250.44"/>
        <lane id=":J29_0_1" index="1" speed="7.66" length="12.79" shape="-825.52,-1242.81 -828.99,-1243.23 -831.51,-1244.66 -833.07,-1247.10 -833.68,-1250.55"/>
    </edge>
    <edge id=":J29_2" function="internal">
        <lane id=":J29_2_0" index="0" speed="3.90" length="2.56" shape="-827.28,-1250.75 -827.16,-1250.07 -826.85,-1249.58 -826.34,-1249.29 -825.65,-1249.21"/>
        <lane id=":J29_2_1" index="1" speed="6.08" length="7.67" shape="-830.48,-1250.65 -830.11,-1248.58 -829.18,-1247.12 -827.67,-1246.26 -825.58,-1246.01"/>
    </edge>
    <edge id=":J3_0" function="internal">
        <lane id=":J3_0_0" index="0" speed="8.96" length="17.99" shape="-345.97,-187.45 -341.10,-186.68 -337.64,-184.53 -335.59,-181.02 -334.95,-176.14"/>
        <lane id=":J3_0_1" index="1" speed="7.66" length="12.85" shape="-346.02,-184.25 -342.54,-183.70 -340.07,-182.17 -338.61,-179.66 -338.15,-176.17"/>
    </edge>
    <edge id=":J3_2" function="internal">
        <lane id=":J3_2_0" index="0" speed="3.90" length="2.57" shape="-344.55,-176.24 -344.64,-176.93 -344.93,-177.44 -345.43,-177.74 -346.12,-177.85"/>
        <lane id=":J3_2_1" index="1" speed="6.08" length="7.71" shape="-341.35,-176.20 -341.62,-178.30 -342.50,-179.80 -343.98,-180.72 -346.07,-181.05"/>
    </edge>
    <edge id=":J30_0" function="internal">
        <lane id=":J30_0_0" index="0" speed="13.89" length="23.66" shape="-683.51,-1242.33 -707.15,-1242.01"/>
        <lane id=":J30_0_1" index="1" speed="13.89" length="23.66" shape="-683.54,-1245.53 -707.22,-1245.21"/>
    </edge>
    <edge id=":J30_2" function="internal">
        <lane id=":J30_2_0" index="0" speed="8.82" length="5.49" shape="-683.54,-1245.53 -689.00,-1246.17"/>
    </edge>
    <edge id=":J30_8" function="internal">
        <lane id=":J30_8_0" index="0" speed="8.82" length="20.26" shape="-689.00,-1246.17 -691.40,-1246.44 -695.41,-1249.38 -695.57,-1254.35 -691.89,-1261.35"/>
    </edge>
    <edge id=":J30_3" function="internal">
        <lane id=":J30_3_0" index="0" speed="5.58" length="9.37" shape="-686.65,-1257.68 -687.99,-1255.14 -687.93,-1253.33 -686.47,-1252.26 -683.61,-1251.93"/>
    </edge>
    <edge id=":J30_4" function="internal">
        <lane id=":J30_4_0" index="0" speed="13.89" length="23.65" shape="-689.27,-1259.52 -694.10,-1253.32 -698.70,-1248.87 -703.07,-1246.17 -707.22,-1245.21"/>
    </edge>
    <edge id=":J30_5" function="internal">
        <lane id=":J30_5_0" index="0" speed="12.16" length="17.70" shape="-707.35,-1251.61 -704.74,-1252.37 -701.73,-1254.55 -698.33,-1258.16 -694.52,-1263.18"/>
    </edge>
    <edge id=":J30_6" function="internal">
        <lane id=":J30_6_0" index="0" speed="13.89" length="23.72" shape="-707.35,-1251.61 -683.61,-1251.93"/>
        <lane id=":J30_6_1" index="1" speed="13.89" length="23.72" shape="-707.28,-1248.41 -683.58,-1248.73"/>
    </edge>
    <edge id=":J31_0" function="internal">
        <lane id=":J31_0_0" index="0" speed="13.89" length="24.28" shape="-437.68,-1244.62 -461.89,-1244.65"/>
        <lane id=":J31_0_1" index="1" speed="13.89" length="24.28" shape="-437.58,-1247.81 -461.93,-1247.85"/>
    </edge>
    <edge id=":J31_2" function="internal">
        <lane id=":J31_2_0" index="0" speed="13.89" length="3.09" shape="-437.58,-1247.81 -440.59,-1248.54"/>
    </edge>
    <edge id=":J31_8" function="internal">
        <lane id=":J31_8_0" index="0" speed="13.89" length="21.44" shape="-440.59,-1248.54 -441.62,-1248.79 -446.19,-1251.49 -451.29,-1255.91 -456.91,-1262.04"/>
    </edge>
    <edge id=":J31_3" function="internal">
        <lane id=":J31_3_0" index="0" speed="13.69" length="19.22" shape="-452.02,-1266.16 -447.38,-1260.99 -443.39,-1257.27 -440.06,-1255.01 -437.38,-1254.21"/>
    </edge>
    <edge id=":J31_4" function="internal">
        <lane id=":J31_4_0" index="0" speed="8.29" length="23.34" shape="-454.47,-1264.10 -451.54,-1258.37 -452.07,-1253.16 -455.67,-1249.36 -461.93,-1247.85"/>
    </edge>
    <edge id=":J31_5" function="internal">
        <lane id=":J31_5_0" index="0" speed="5.53" length="9.49" shape="-461.99,-1254.25 -459.06,-1254.63 -457.64,-1255.72 -457.74,-1257.50 -459.36,-1259.98"/>
    </edge>
    <edge id=":J31_6" function="internal">
        <lane id=":J31_6_0" index="0" speed="13.89" length="24.55" shape="-461.99,-1254.25 -437.38,-1254.21"/>
        <lane id=":J31_6_1" index="1" speed="13.89" length="24.55" shape="-461.96,-1251.05 -437.48,-1251.01"/>
    </edge>
    <edge id=":J32_0" function="internal">
        <lane id=":J32_0_0" index="0" speed="8.96" length="18.48" shape="-312.64,-1252.23 -313.36,-1247.19 -315.53,-1243.65 -319.14,-1241.59 -324.19,-1241.03"/>
        <lane id=":J32_0_1" index="1" speed="7.65" length="13.20" shape="-315.84,-1252.23 -316.36,-1248.63 -317.90,-1246.10 -320.48,-1244.63 -324.09,-1244.23"/>
    </edge>
    <edge id=":J32_2" function="internal">
        <lane id=":J32_2_0" index="0" speed="3.90" length="2.64" shape="-323.89,-1250.63 -323.17,-1250.71 -322.65,-1251.00 -322.34,-1251.51 -322.24,-1252.23"/>
        <lane id=":J32_2_1" index="1" speed="6.07" length="7.92" shape="-323.99,-1247.43 -321.83,-1247.67 -320.28,-1248.55 -319.35,-1250.07 -319.04,-1252.23"/>
    </edge>
    <edge id=":J33_0" function="internal">
        <lane id=":J33_0_0" index="0" speed="6.22" length="9.05" shape="-322.24,-1441.34 -322.60,-1443.84 -323.69,-1445.52 -325.50,-1446.35 -328.03,-1446.35"/>
    </edge>
    <edge id=":J33_1" function="internal">
        <lane id=":J33_1_0" index="0" speed="13.89" length="20.93" shape="-322.24,-1441.34 -322.24,-1462.27"/>
        <lane id=":J33_1_1" index="1" speed="13.89" length="20.93" shape="-319.04,-1441.34 -319.04,-1462.27"/>
    </edge>
    <edge id=":J33_3" function="internal">
        <lane id=":J33_3_0" index="0" speed="13.89" length="20.93" shape="-312.64,-1462.27 -312.64,-1441.34"/>
        <lane id=":J33_3_1" index="1" speed="13.89" length="20.93" shape="-315.84,-1462.27 -315.84,-1441.34"/>
    </edge>
    <edge id=":J33_5" function="internal">
        <lane id=":J33_5_0" index="0" speed="9.91" length="4.46" shape="-315.84,-1462.27 -316.55,-1457.87"/>
    </edge>
    <edge id=":J33_8" function="internal">
        <lane id=":J33_8_0" index="0" speed="9.91" length="15.41" shape="-316.55,-1457.87 -316.63,-1457.38 -319.00,-1453.62 -322.95,-1451.00 -328.49,-1449.52"/>
    </edge>
    <edge id=":J33_6" function="internal">
        <lane id=":J33_6_0" index="0" speed="7.38" length="10.61" shape="-329.40,-1455.85 -326.27,-1456.64 -324.03,-1457.97 -322.69,-1459.85 -322.24,-1462.27"/>
    </edge>
    <edge id=":J33_7" function="internal">
        <lane id=":J33_7_0" index="0" speed="9.05" length="20.49" shape="-328.94,-1452.68 -323.21,-1452.69 -319.12,-1450.79 -316.66,-1447.01 -315.84,-1441.34"/>
    </edge>
    <edge id=":J34_0" function="internal">
        <lane id=":J34_0_0" index="0" speed="3.91" length="2.52" shape="-322.24,-1572.12 -322.34,-1572.80 -322.63,-1573.30 -323.11,-1573.60 -323.79,-1573.72"/>
        <lane id=":J34_0_1" index="1" speed="6.08" length="7.57" shape="-319.04,-1572.12 -319.33,-1574.17 -320.20,-1575.65 -321.66,-1576.57 -323.70,-1576.92"/>
    </edge>
    <edge id=":J34_2" function="internal">
        <lane id=":J34_2_0" index="0" speed="8.97" length="17.67" shape="-323.50,-1583.32 -318.75,-1582.49 -315.36,-1580.35 -313.32,-1576.90 -312.64,-1572.12"/>
        <lane id=":J34_2_1" index="1" speed="7.66" length="12.62" shape="-323.60,-1580.12 -320.20,-1579.53 -317.78,-1578.00 -316.32,-1575.53 -315.84,-1572.12"/>
    </edge>
    <edge id=":J35_0" function="internal">
        <lane id=":J35_0_0" index="0" speed="6.52" length="9.13" shape="-587.80,-1575.75 -588.15,-1578.26 -589.20,-1580.05 -590.96,-1581.11 -593.42,-1581.44"/>
    </edge>
    <edge id=":J35_1" function="internal">
        <lane id=":J35_1_0" index="0" speed="9.21" length="19.58" shape="-584.60,-1575.75 -583.84,-1581.09 -581.54,-1584.85 -577.72,-1587.03 -572.36,-1587.63"/>