<?xml version="1.0" encoding="UTF-8"?>

<!-- generated on 2024-06-17 06:28:50 by Eclipse SUMO netedit Version 1.20.0
<configuration xmlns:xsi="http://www.w3.org/2001/XMLSchema-instance" xsi:noNamespaceSchemaLocation="http://sumo.dlr.de/xsd/neteditConfiguration.xsd">

    <input>
        <sumocfg-file value="F:\Project\Thesis\Thesis\Sumo\traci\new\new.sumocfg"/>
        <additional-files value=""/>
        <route-files value="F:\Project\Thesis\Thesis\Sumo\traci\new\bus.trips.xml"/>
        <sumo-net-file value="F:\Project\Thesis\Thesis\Sumo\traci\new\new.net.xml"/>
    </input>

    <output>
        <output-file value="F:\Project\Thesis\Thesis\Sumo\traci\new\new.net.xml"/>
    </output>

    <processing>
        <geometry.min-radius.fix.railways value="false"/>
        <geometry.max-grade.fix value="false"/>
        <offset.disable-normalization value="true"/>
        <lefthand value="0"/>
    </processing>

    <junctions>
        <no-turnarounds value="true"/>
        <junctions.corner-detail value="5"/>
        <junctions.limit-turn-speed value="5.50"/>
        <rectangular-lane-cut value="0"/>
    </junctions>

    <pedestrian>
        <walkingareas value="0"/>
    </pedestrian>

    <netedit>
        <ignore.routeelements value="false"/>
    </netedit>

</configuration>
-->

<net version="1.20" junctionCornerDetail="5" limitTurnSpeed="5.50" xmlns:xsi="http://www.w3.org/2001/XMLSchema-instance" xsi:noNamespaceSchemaLocation="http://sumo.dlr.de/xsd/net_file.xsd">

    <location netOffset="0.00,0.00" convBoundary="-1057.96,-1895.54,265.70,155.56" origBoundary="-10000000000.00,-10000000000.00,10000000000.00,10000000000.00" projParameter="!"/>

    <edge id=":J0_0" function="internal">
        <lane id=":J0_0_0" index="0" speed="13.89" length="16.72" shape="-398.43,-1462.13 -402.61,-1459.84 -405.42,-1458.09 -407.76,-1455.82 -410.52,-1452.00"/>
        <lane id=":J0_0_1" index="1" speed="13.89" length="16.72" shape="-398.43,-1462.13 -403.20,-1460.07 -406.83,-1459.05 -409.95,-1457.48 -413.19,-1453.77"/>
    </edge>
    <edge id=":J0_2" function="internal">
        <lane id=":J0_2_0" index="0" speed="9.12" length="5.21" shape="-399.99,-1464.92 -404.86,-1463.04"/>
    </edge>
    <edge id=":J0_9" function="internal">
        <lane id=":J0_9_0" index="0" speed="9.12" length="14.85" shape="-404.86,-1463.04 -405.19,-1462.91 -409.64,-1463.14 -413.36,-1465.61 -416.34,-1470.32"/>
    </edge>
    <edge id=":J0_3" function="internal">
        <lane id=":J0_3_0" index="0" speed="6.32" length="9.04" shape="-410.49,-1472.93 -409.15,-1470.81 -407.48,-1469.70 -405.47,-1469.60 -403.13,-1470.50"/>
    </edge>
    <edge id=":J0_4" function="internal">
        <lane id=":J0_4_0" index="0" speed="12.89" length="21.85" shape="-410.49,-1472.93 -408.41,-1466.95 -407.71,-1461.47 -408.42,-1456.49 -410.52,-1452.00"/>
        <lane id=":J0_4_1" index="1" speed="11.93" length="18.63" shape="-413.41,-1471.63 -411.58,-1466.44 -410.93,-1461.73 -411.47,-1457.51 -413.19,-1453.77"/>
    </edge>
    <edge id=":J0_6" function="internal">
        <lane id=":J0_6_0" index="0" speed="9.74" length="12.21" shape="-418.53,-1457.30 -417.57,-1459.56 -417.37,-1462.26 -417.93,-1465.42 -419.26,-1469.02"/>
        <lane id=":J0_6_1" index="1" speed="10.89" length="15.42" shape="-415.86,-1455.53 -414.52,-1458.53 -414.15,-1462.00 -414.76,-1465.93 -416.34,-1470.32"/>
    </edge>
    <edge id=":J0_8" function="internal">
        <lane id=":J0_8_0" index="0" speed="13.89" length="19.11" shape="-415.86,-1455.53 -412.59,-1460.09 -409.84,-1462.83 -406.52,-1464.97 -401.56,-1467.71"/>
    </edge>
    <edge id=":J1_0" function="internal">
        <lane id=":J1_0_0" index="0" speed="7.03" length="10.19" shape="-488.33,-531.66 -488.78,-534.32 -490.01,-536.27 -492.02,-537.49 -494.81,-537.99"/>
    </edge>
    <edge id=":J1_1" function="internal">
        <lane id=":J1_1_0" index="0" speed="13.89" length="21.40" shape="-488.33,-531.66 -488.83,-553.05"/>
        <lane id=":J1_1_1" index="1" speed="13.89" length="21.40" shape="-485.13,-531.72 -485.63,-553.13"/>
    </edge>
    <edge id=":J1_3" function="internal">
        <lane id=":J1_3_0" index="0" speed="9.22" length="4.88" shape="-485.13,-531.72 -484.53,-536.57"/>
    </edge>
    <edge id=":J1_16" function="internal">
        <lane id=":J1_16_0" index="0" speed="9.22" length="14.66" shape="-484.53,-536.57 -484.47,-537.05 -482.26,-540.85 -478.50,-543.12 -473.17,-543.86"/>
    </edge>
    <edge id=":J1_4" function="internal">
        <lane id=":J1_4_0" index="0" speed="6.45" length="9.03" shape="-473.20,-537.46 -475.66,-537.12 -477.41,-536.07 -478.43,-534.31 -478.73,-531.85"/>
    </edge>
    <edge id=":J1_5" function="internal">
        <lane id=":J1_5_0" index="0" speed="13.89" length="21.55" shape="-473.20,-537.46 -494.81,-537.99"/>
        <lane id=":J1_5_1" index="1" speed="13.89" length="21.55" shape="-473.19,-540.66 -494.67,-541.19"/>
    </edge>
    <edge id=":J1_7" function="internal">
        <lane id=":J1_7_0" index="0" speed="9.50" length="5.38" shape="-473.19,-540.66 -478.51,-541.46"/>
    </edge>
    <edge id=":J1_17" function="internal">
        <lane id=":J1_17_0" index="0" speed="9.50" length="14.57" shape="-478.51,-541.46 -482.35,-543.81 -484.73,-547.70 -485.63,-553.13"/>
    </edge>
    <edge id=":J1_8" function="internal">
        <lane id=":J1_8_0" index="0" speed="6.84" length="9.86" shape="-479.23,-553.30 -478.79,-550.58 -477.63,-548.63 -475.75,-547.46 -473.16,-547.06"/>
    </edge>
    <edge id=":J1_9" function="internal">
        <lane id=":J1_9_0" index="0" speed="13.89" length="21.45" shape="-479.23,-553.30 -478.73,-531.85"/>
        <lane id=":J1_9_1" index="1" speed="13.89" length="21.45" shape="-482.43,-553.22 -481.93,-531.79"/>
    </edge>
    <edge id=":J1_11" function="internal">
        <lane id=":J1_11_0" index="0" speed="9.15" length="5.09" shape="-482.43,-553.22 -483.02,-548.16"/>
    </edge>
    <edge id=":J1_18" function="internal">
        <lane id=":J1_18_0" index="0" speed="9.15" length="14.80" shape="-483.02,-548.16 -483.07,-547.75 -485.32,-543.92 -489.19,-541.73 -494.67,-541.19"/>
    </edge>
    <edge id=":J1_12" function="internal">
        <lane id=":J1_12_0" index="0" speed="6.36" length="9.04" shape="-494.39,-547.58 -491.90,-547.83 -490.14,-548.82 -489.12,-550.56 -488.83,-553.05"/>
    </edge>
    <edge id=":J1_13" function="internal">
        <lane id=":J1_13_0" index="0" speed="13.89" length="21.30" shape="-494.39,-547.58 -473.16,-547.06"/>
        <lane id=":J1_13_1" index="1" speed="13.89" length="21.30" shape="-494.53,-544.39 -473.17,-543.86"/>
    </edge>
    <edge id=":J1_15" function="internal">
        <lane id=":J1_15_0" index="0" speed="9.64" length="4.56" shape="-494.53,-544.39 -490.04,-543.57"/>
    </edge>
    <edge id=":J1_19" function="internal">
        <lane id=":J1_19_0" index="0" speed="9.64" length="15.48" shape="-490.04,-543.57 -489.11,-543.39 -485.20,-540.96 -482.81,-537.09 -481.93,-531.79"/>
    </edge>
    <edge id=":J10_0" function="internal">
        <lane id=":J10_0_0" index="0" speed="7.20" length="16.62" shape="-494.15,-753.13 -495.06,-755.62 -497.58,-755.99 -501.72,-754.25 -507.47,-750.40"/>
    </edge>
    <edge id=":J10_1" function="internal">
        <lane id=":J10_1_0" index="0" speed="10.50" length="25.99" shape="-494.15,-753.13 -495.57,-758.01 -499.54,-761.30 -506.04,-762.99 -515.08,-763.08"/>
    </edge>
    <edge id=":J10_2" function="internal">
        <lane id=":J10_2_0" index="0" speed="13.89" length="30.87" shape="-494.15,-753.13 -495.01,-761.92 -497.08,-769.54 -500.37,-775.97 -504.87,-781.23"/>
    </edge>
    <edge id=":J10_3" function="internal">
        <lane id=":J10_3_0" index="0" speed="13.89" length="34.60" shape="-494.15,-753.13 -494.19,-787.81"/>
        <lane id=":J10_3_1" index="1" speed="13.89" length="34.60" shape="-490.95,-753.22 -490.99,-787.74"/>
    </edge>
    <edge id=":J10_5" function="internal">
        <lane id=":J10_5_0" index="0" speed="13.89" length="34.33" shape="-484.59,-787.60 -484.56,-753.39"/>
        <lane id=":J10_5_1" index="1" speed="13.89" length="34.33" shape="-484.59,-787.60 -487.76,-753.30"/>
    </edge>
    <edge id=":J10_7" function="internal">
        <lane id=":J10_7_0" index="0" speed="13.89" length="15.56" shape="-484.59,-787.60 -486.19,-777.62 -488.45,-772.66"/>
        <lane id=":J10_7_1" index="1" speed="13.89" length="4.39" shape="-487.79,-787.67 -488.50,-783.34"/>
    </edge>
    <edge id=":J10_9" function="internal">
        <lane id=":J10_9_0" index="0" speed="13.39" length="3.38" shape="-487.79,-787.67 -488.51,-784.37"/>
    </edge>
    <edge id=":J10_10" function="internal">
        <lane id=":J10_10_0" index="0" speed="8.32" length="2.76" shape="-487.79,-787.67 -488.52,-785.01"/>
    </edge>
    <edge id=":J10_26" function="internal">
        <lane id=":J10_26_0" index="0" speed="13.89" length="29.62" shape="-488.45,-772.66 -490.54,-768.09 -497.63,-759.01 -507.47,-750.40"/>
    </edge>
    <edge id=":J10_27" function="internal">
        <lane id=":J10_27_0" index="0" speed="13.89" length="37.90" shape="-488.50,-783.34 -489.30,-778.43 -493.40,-769.56 -500.10,-761.07 -509.39,-752.96"/>
    </edge>
    <edge id=":J10_28" function="internal">
        <lane id=":J10_28_0" index="0" speed="13.39" length="35.37" shape="-488.51,-784.37 -489.67,-779.00 -494.88,-772.55 -503.43,-768.31 -515.30,-766.28"/>
    </edge>
    <edge id=":J10_29" function="internal">
        <lane id=":J10_29_0" index="0" speed="8.32" length="21.15" shape="-488.52,-785.01 -489.50,-781.43 -493.60,-778.08 -499.07,-777.92 -504.87,-781.23"/>
    </edge>
    <edge id=":J10_11" function="internal">
        <lane id=":J10_11_0" index="0" speed="5.64" length="10.12" shape="-500.55,-785.95 -497.83,-783.95 -495.86,-783.59 -494.65,-784.88 -494.19,-787.81"/>
    </edge>
    <edge id=":J10_12" function="internal">
        <lane id=":J10_12_0" index="0" speed="13.89" length="37.28" shape="-500.55,-785.95 -493.74,-778.61 -488.80,-770.73 -485.74,-762.32 -484.56,-753.39"/>
        <lane id=":J10_12_1" index="1" speed="13.89" length="34.70" shape="-502.71,-783.59 -496.34,-776.73 -491.72,-769.39 -488.86,-761.59 -487.76,-753.30"/>
    </edge>
    <edge id=":J10_14" function="internal">
        <lane id=":J10_14_0" index="0" speed="12.02" length="38.15" shape="-502.71,-783.59 -496.37,-775.32 -496.00,-767.78 -500.66,-760.50 -509.39,-752.96"/>
    </edge>
    <edge id=":J10_15" function="internal">
        <lane id=":J10_15_0" index="0" speed="8.89" length="28.13" shape="-502.71,-783.59 -499.30,-777.62 -501.26,-772.23 -507.09,-768.20 -515.30,-766.28"/>
    </edge>
    <edge id=":J10_16" function="internal">
        <lane id=":J10_16_0" index="0" speed="6.56" length="14.54" shape="-515.73,-772.66 -509.78,-773.42 -506.34,-774.71 -505.43,-776.52 -507.02,-778.87"/>
    </edge>
    <edge id=":J10_17" function="internal">
        <lane id=":J10_17_0" index="0" speed="11.66" length="29.15" shape="-515.73,-772.66 -506.42,-774.15 -499.73,-777.17 -495.65,-781.73 -494.19,-787.81"/>
        <lane id=":J10_17_1" index="1" speed="12.55" length="33.94" shape="-515.52,-769.47 -504.92,-771.23 -497.30,-774.86 -492.66,-780.37 -490.99,-787.74"/>
    </edge>
    <edge id=":J10_19" function="internal">
        <lane id=":J10_19_0" index="0" speed="12.37" length="36.49" shape="-515.52,-769.47 -503.55,-769.16 -494.94,-766.36 -489.67,-761.07 -487.76,-753.30"/>
    </edge>
    <edge id=":J10_20" function="internal">
        <lane id=":J10_20_0" index="0" speed="7.82" length="23.82" shape="-515.52,-769.47 -509.34,-767.99 -505.86,-763.66 -505.67,-758.10 -509.39,-752.96"/>
    </edge>
    <edge id=":J10_21" function="internal">
        <lane id=":J10_21_0" index="0" speed="5.49" length="10.78" shape="-513.23,-758.08 -510.51,-760.51 -509.92,-762.15 -511.44,-763.01 -515.08,-763.08"/>
    </edge>
    <edge id=":J10_22" function="internal">
        <lane id=":J10_22_0" index="0" speed="9.90" length="25.49" shape="-513.23,-758.08 -506.87,-763.85 -503.72,-769.23 -503.77,-774.24 -507.02,-778.87"/>
    </edge>
    <edge id=":J10_23" function="internal">
        <lane id=":J10_23_0" index="0" speed="13.89" length="36.49" shape="-513.23,-758.08 -505.03,-765.18 -499.12,-772.51 -495.51,-780.05 -494.19,-787.81"/>
        <lane id=":J10_23_1" index="1" speed="13.89" length="39.39" shape="-511.31,-755.52 -502.56,-763.13 -496.26,-771.03 -492.40,-779.24 -490.99,-787.74"/>
    </edge>
    <edge id=":J10_25" function="internal">
        <lane id=":J10_25_0" index="0" speed="9.57" length="30.51" shape="-511.31,-755.52 -503.24,-760.34 -495.72,-762.29 -490.10,-760.30 -487.76,-753.30"/>
    </edge>
    <edge id=":J11_0" function="internal">
        <lane id=":J11_0_0" index="0" speed="3.90" length="2.72" shape="-448.90,-1763.47 -449.64,-1763.62 -450.23,-1763.49 -450.68,-1763.08 -450.98,-1762.39"/>
        <lane id=":J11_0_1" index="1" speed="6.07" length="8.17" shape="-447.82,-1766.49 -450.04,-1766.94 -451.82,-1766.54 -453.16,-1765.31 -454.06,-1763.23"/>
    </edge>
    <edge id=":J11_2" function="internal">
        <lane id=":J11_2_0" index="0" speed="8.95" length="19.07" shape="-460.24,-1764.92 -458.14,-1769.76 -455.01,-1772.64 -450.85,-1773.56 -445.68,-1772.52"/>
        <lane id=":J11_2_1" index="1" speed="7.65" length="13.62" shape="-457.15,-1764.07 -455.65,-1767.53 -453.42,-1769.59 -450.45,-1770.25 -446.75,-1769.50"/>
    </edge>
    <edge id=":J12_0" function="internal">
        <lane id=":J12_0_0" index="0" speed="13.89" length="20.90" shape="-1059.43,-311.96 -1059.46,-332.87"/>
        <lane id=":J12_0_1" index="1" speed="13.89" length="20.90" shape="-1056.23,-311.98 -1056.26,-332.86"/>
    </edge>
    <edge id=":J12_2" function="internal">
        <lane id=":J12_2_0" index="0" speed="9.25" length="5.15" shape="-1056.23,-311.98 -1055.54,-317.08"/>
    </edge>
    <edge id=":J12_8" function="internal">
        <lane id=":J12_8_0" index="0" speed="9.25" length="14.25" shape="-1055.54,-317.08 -1055.51,-317.25 -1053.28,-321.02 -1049.53,-323.28 -1044.26,-324.03"/>
    </edge>
    <edge id=":J12_3" function="internal">
        <lane id=":J12_3_0" index="0" speed="6.49" length="9.03" shape="-1044.26,-317.63 -1046.71,-317.28 -1048.46,-316.23 -1049.50,-314.47 -1049.83,-312.02"/>
    </edge>
    <edge id=":J12_4" function="internal">
        <lane id=":J12_4_0" index="0" speed="9.26" length="19.40" shape="-1044.26,-320.83 -1049.53,-321.58 -1053.28,-323.84 -1055.53,-327.60 -1056.26,-332.86"/>
    </edge>
    <edge id=":J12_5" function="internal">
        <lane id=":J12_5_0" index="0" speed="6.50" length="9.05" shape="-1049.86,-332.84 -1049.52,-330.38 -1048.47,-328.63 -1046.72,-327.58 -1044.26,-327.23"/>
    </edge>
    <edge id=":J12_6" function="internal">
        <lane id=":J12_6_0" index="0" speed="13.89" length="20.83" shape="-1049.86,-332.84 -1049.83,-312.02"/>
        <lane id=":J12_6_1" index="1" speed="13.89" length="20.83" shape="-1053.06,-332.85 -1053.03,-312.00"/>
    </edge>
    <edge id=":J13_0" function="internal">
        <lane id=":J13_0_0" index="0" speed="6.56" length="9.15" shape="-780.39,-311.95 -780.76,-314.43 -781.83,-316.21 -783.60,-317.27 -786.07,-317.63"/>
    </edge>
    <edge id=":J13_1" function="internal">
        <lane id=":J13_1_0" index="0" speed="13.89" length="20.89" shape="-780.39,-311.95 -780.49,-332.84"/>
        <lane id=":J13_1_1" index="1" speed="13.89" length="20.89" shape="-777.19,-311.96 -777.29,-332.85"/>
    </edge>
    <edge id=":J13_3" function="internal">
        <lane id=":J13_3_0" index="0" speed="9.24" length="5.04" shape="-777.19,-311.96 -776.51,-316.96"/>
    </edge>
    <edge id=":J13_16" function="internal">
        <lane id=":J13_16_0" index="0" speed="9.24" length="14.38" shape="-776.51,-316.96 -776.47,-317.24 -774.22,-321.01 -770.46,-323.26 -765.19,-323.99"/>
    </edge>
    <edge id=":J13_4" function="internal">
        <lane id=":J13_4_0" index="0" speed="6.49" length="9.03" shape="-765.21,-317.59 -767.66,-317.25 -769.41,-316.20 -770.46,-314.45 -770.79,-312.00"/>
    </edge>
    <edge id=":J13_5" function="internal">
        <lane id=":J13_5_0" index="0" speed="13.89" length="20.87" shape="-765.21,-317.59 -786.07,-317.63"/>
        <lane id=":J13_5_1" index="1" speed="13.89" length="20.87" shape="-765.20,-320.79 -786.07,-320.83"/>
    </edge>
    <edge id=":J13_7" function="internal">
        <lane id=":J13_7_0" index="0" speed="9.30" length="4.97" shape="-765.20,-320.79 -770.12,-321.51"/>
    </edge>
    <edge id=":J13_17" function="internal">
        <lane id=":J13_17_0" index="0" speed="9.30" length="14.46" shape="-770.12,-321.51 -770.47,-321.56 -774.24,-323.83 -776.51,-327.59 -777.29,-332.85"/>
    </edge>
    <edge id=":J13_8" function="internal">
        <lane id=":J13_8_0" index="0" speed="6.57" length="9.17" shape="-770.89,-332.87 -770.52,-330.39 -769.45,-328.62 -767.67,-327.56 -765.18,-327.19"/>
    </edge>
    <edge id=":J13_9" function="internal">
        <lane id=":J13_9_0" index="0" speed="13.89" length="20.87" shape="-770.89,-332.87 -770.79,-312.00"/>
        <lane id=":J13_9_1" index="1" speed="13.89" length="20.87" shape="-774.09,-332.86 -773.99,-311.98"/>
    </edge>
    <edge id=":J13_11" function="internal">
        <lane id=":J13_11_0" index="0" speed="9.25" length="4.98" shape="-774.09,-332.86 -774.77,-327.93"/>
    </edge>
    <edge id=":J13_18" function="internal">
        <lane id=":J13_18_0" index="0" speed="9.25" length="14.40" shape="-774.77,-327.93 -774.82,-327.60 -777.06,-323.84 -780.81,-321.58 -786.07,-320.83"/>
    </edge>
    <edge id=":J13_12" function="internal">
        <lane id=":J13_12_0" index="0" speed="6.50" length="9.03" shape="-786.07,-327.23 -783.62,-327.58 -781.87,-328.63 -780.83,-330.38 -780.49,-332.84"/>
    </edge>
    <edge id=":J13_13" function="internal">
        <lane id=":J13_13_0" index="0" speed="13.89" length="20.89" shape="-786.07,-327.23 -765.18,-327.19"/>
        <lane id=":J13_13_1" index="1" speed="13.89" length="20.89" shape="-786.07,-324.03 -765.19,-323.99"/>
    </edge>
    <edge id=":J13_15" function="internal">
        <lane id=":J13_15_0" index="0" speed="9.29" length="5.06" shape="-786.07,-324.03 -781.06,-323.31"/>
    </edge>
    <edge id=":J13_19" function="internal">
        <lane id=":J13_19_0" index="0" speed="9.29" length="14.37" shape="-781.06,-323.31 -780.81,-323.28 -777.05,-321.02 -774.77,-317.25 -773.99,-311.98"/>
    </edge>
    <edge id=":J14_0" function="internal">
        <lane id=":J14_0_0" index="0" speed="13.89" length="21.05" shape="-470.59,-88.31 -470.50,-67.23"/>
        <lane id=":J14_0_1" index="1" speed="13.89" length="21.05" shape="-473.79,-88.26 -473.70,-67.26"/>
    </edge>
    <edge id=":J14_2" function="internal">
        <lane id=":J14_2_0" index="0" speed="9.24" length="5.24" shape="-473.79,-88.26 -474.44,-83.06"/>
    </edge>
    <edge id=":J14_8" function="internal">
        <lane id=":J14_8_0" index="0" speed="9.24" length="14.21" shape="-474.44,-83.06 -474.46,-82.96 -476.66,-79.17 -480.40,-76.89 -485.69,-76.11"/>
    </edge>
    <edge id=":J14_3" function="internal">
        <lane id=":J14_3_0" index="0" speed="6.48" length="9.03" shape="-485.71,-82.51 -483.26,-82.87 -481.52,-83.93 -480.50,-85.69 -480.19,-88.15"/>
    </edge>
    <edge id=":J14_4" function="internal">
        <lane id=":J14_4_0" index="0" speed="9.24" length="19.45" shape="-485.70,-79.31 -480.41,-78.57 -476.65,-76.32 -474.41,-72.55 -473.70,-67.26"/>
    </edge>
    <edge id=":J14_5" function="internal">
        <lane id=":J14_5_0" index="0" speed="6.48" length="9.04" shape="-480.10,-67.31 -480.43,-69.77 -481.47,-71.52 -483.22,-72.57 -485.68,-72.91"/>
    </edge>
    <edge id=":J14_6" function="internal">
        <lane id=":J14_6_0" index="0" speed="13.89" length="20.88" shape="-480.10,-67.31 -480.19,-88.15"/>
        <lane id=":J14_6_1" index="1" speed="13.89" length="20.88" shape="-476.90,-67.28 -476.99,-88.21"/>
    </edge>
    <edge id=":J15_0" function="internal">
        <lane id=":J15_0_0" index="0" speed="6.57" length="9.17" shape="-763.89,-71.79 -766.36,-71.43 -768.13,-70.35 -769.19,-68.56 -769.56,-66.07"/>
    </edge>
    <edge id=":J15_1" function="internal">
        <lane id=":J15_1_0" index="0" speed="13.89" length="20.85" shape="-763.89,-71.79 -784.74,-71.72"/>
        <lane id=":J15_1_1" index="1" speed="13.89" length="20.85" shape="-763.90,-74.99 -784.75,-74.92"/>
    </edge>
    <edge id=":J15_3" function="internal">
        <lane id=":J15_3_0" index="0" speed="9.27" length="5.02" shape="-763.90,-74.99 -768.87,-75.68"/>
    </edge>
    <edge id=":J15_16" function="internal">
        <lane id=":J15_16_0" index="0" speed="9.27" length="14.34" shape="-768.87,-75.68 -769.15,-75.72 -772.91,-77.96 -775.18,-81.70 -775.96,-86.96"/>
    </edge>
    <edge id=":J15_4" function="internal">
        <lane id=":J15_4_0" index="0" speed="6.52" length="9.05" shape="-769.56,-86.99 -769.19,-84.53 -768.13,-82.78 -766.38,-81.73 -763.93,-81.39"/>
    </edge>
    <edge id=":J15_5" function="internal">
        <lane id=":J15_5_0" index="0" speed="13.89" length="20.91" shape="-769.56,-86.99 -769.56,-66.07"/>
        <lane id=":J15_5_1" index="1" speed="13.89" length="20.91" shape="-772.76,-86.97 -772.76,-66.09"/>
    </edge>
    <edge id=":J15_7" function="internal">
        <lane id=":J15_7_0" index="0" speed="9.26" length="5.14" shape="-772.76,-86.97 -773.46,-81.88"/>
    </edge>
    <edge id=":J15_17" function="internal">
        <lane id=":J15_17_0" index="0" speed="9.26" length="14.26" shape="-773.46,-81.88 -773.48,-81.71 -775.72,-77.95 -779.48,-75.68 -784.75,-74.92"/>
    </edge>
    <edge id=":J15_8" function="internal">
        <lane id=":J15_8_0" index="0" speed="6.51" length="9.06" shape="-784.77,-81.32 -782.30,-81.67 -780.55,-82.73 -779.50,-84.49 -779.16,-86.94"/>
    </edge>
    <edge id=":J15_9" function="internal">
        <lane id=":J15_9_0" index="0" speed="13.89" length="20.84" shape="-784.77,-81.32 -763.93,-81.39"/>
        <lane id=":J15_9_1" index="1" speed="13.89" length="20.84" shape="-784.76,-78.12 -763.92,-78.19"/>
    </edge>
    <edge id=":J15_11" function="internal">
        <lane id=":J15_11_0" index="0" speed="9.24" length="4.99" shape="-784.76,-78.12 -779.82,-77.43"/>
    </edge>
    <edge id=":J15_18" function="internal">
        <lane id=":J15_18_0" index="0" speed="9.24" length="14.43" shape="-779.82,-77.43 -779.48,-77.38 -775.73,-75.13 -773.48,-71.36 -772.76,-66.09"/>
    </edge>
    <edge id=":J15_12" function="internal">
        <lane id=":J15_12_0" index="0" speed="6.49" length="9.03" shape="-779.16,-66.12 -779.50,-68.58 -780.54,-70.33 -782.29,-71.37 -784.74,-71.72"/>
    </edge>
    <edge id=":J15_13" function="internal">
        <lane id=":J15_13_0" index="0" speed="13.89" length="20.84" shape="-779.16,-66.12 -779.16,-86.94"/>
        <lane id=":J15_13_1" index="1" speed="13.89" length="20.84" shape="-775.96,-66.10 -775.96,-86.96"/>
    </edge>
    <edge id=":J15_15" function="internal">
        <lane id=":J15_15_0" index="0" speed="9.31" length="4.86" shape="-775.96,-66.10 -775.25,-70.91"/>
    </edge>
    <edge id=":J15_19" function="internal">
        <lane id=":J15_19_0" index="0" speed="9.31" length="14.55" shape="-775.25,-70.91 -775.18,-71.37 -772.91,-75.15 -769.16,-77.42 -763.92,-78.19"/>
    </edge>
    <edge id=":J16_0" function="internal">
        <lane id=":J16_0_0" index="0" speed="9.94" length="14.54" shape="-1039.72,-419.91 -1044.02,-417.47 -1047.10,-415.02 -1048.96,-412.55 -1049.58,-410.06"/>
    </edge>
    <edge id=":J16_1" function="internal">
        <lane id=":J16_1_0" index="0" speed="8.82" length="23.20" shape="-1041.13,-422.78 -1047.61,-420.62 -1052.31,-421.43 -1055.24,-425.20 -1056.38,-431.93"/>
    </edge>
    <edge id=":J16_2" function="internal">
        <lane id=":J16_2_0" index="0" speed="5.78" length="9.16" shape="-1049.98,-432.13 -1049.53,-429.47 -1048.38,-427.99 -1046.52,-427.67 -1043.96,-428.52"/>
    </edge>
    <edge id=":J16_3" function="internal">
        <lane id=":J16_3_0" index="0" speed="13.89" length="22.02" shape="-1049.98,-432.13 -1049.58,-410.06"/>
        <lane id=":J16_3_1" index="1" speed="13.89" length="22.02" shape="-1053.18,-432.03 -1052.78,-410.07"/>
    </edge>
    <edge id=":J16_5" function="internal">
        <lane id=":J16_5_0" index="0" speed="13.89" length="21.80" shape="-1059.18,-410.10 -1059.58,-431.84"/>
        <lane id=":J16_5_1" index="1" speed="13.89" length="21.80" shape="-1055.98,-410.08 -1056.38,-431.93"/>
    </edge>
    <edge id=":J16_7" function="internal">
        <lane id=":J16_7_0" index="0" speed="12.03" length="3.41" shape="-1055.98,-410.08 -1055.32,-413.43"/>
    </edge>
    <edge id=":J16_8" function="internal">
        <lane id=":J16_8_0" index="0" speed="12.03" length="18.19" shape="-1055.32,-413.43 -1055.13,-414.41 -1052.60,-418.45 -1048.41,-422.20 -1042.55,-425.65"/>
    </edge>
    <edge id=":J17_0" function="internal">
        <lane id=":J17_0_0" index="0" speed="13.89" length="21.28" shape="-1062.45,-525.04 -1062.58,-546.39"/>
        <lane id=":J17_0_1" index="1" speed="13.89" length="21.28" shape="-1059.25,-525.13 -1059.38,-546.34"/>
    </edge>
    <edge id=":J17_2" function="internal">
        <lane id=":J17_2_0" index="0" speed="9.48" length="5.20" shape="-1059.25,-525.13 -1058.62,-530.30"/>
    </edge>
    <edge id=":J17_8" function="internal">
        <lane id=":J17_8_0" index="0" speed="9.48" length="14.53" shape="-1058.62,-530.30 -1056.39,-534.12 -1052.56,-536.58 -1047.12,-537.70"/>
    </edge>
    <edge id=":J17_3" function="internal">
        <lane id=":J17_3_0" index="0" speed="6.82" length="9.71" shape="-1046.67,-531.31 -1049.44,-530.77 -1051.39,-529.59 -1052.53,-527.78 -1052.85,-525.33"/>
    </edge>
    <edge id=":J17_4" function="internal">
        <lane id=":J17_4_0" index="0" speed="9.13" length="20.03" shape="-1046.89,-534.51 -1052.43,-534.91 -1056.36,-537.02 -1058.68,-540.82 -1059.38,-546.34"/>
    </edge>
    <edge id=":J17_5" function="internal">
        <lane id=":J17_5_0" index="0" speed="6.33" length="9.04" shape="-1052.98,-546.23 -1052.66,-543.74 -1051.62,-542.02 -1049.85,-541.07 -1047.34,-540.89"/>
    </edge>
    <edge id=":J17_6" function="internal">
        <lane id=":J17_6_0" index="0" speed="13.89" length="20.98" shape="-1052.98,-546.23 -1052.85,-525.33"/>
        <lane id=":J17_6_1" index="1" speed="13.89" length="20.98" shape="-1056.18,-546.28 -1056.05,-525.23"/>
    </edge>
    <edge id=":J18_0" function="internal">
        <lane id=":J18_0_0" index="0" speed="7.04" length="15.72" shape="-1037.28,-737.28 -1042.72,-740.75 -1046.62,-742.23 -1048.99,-741.70 -1049.82,-739.17"/>
    </edge>
    <edge id=":J18_1" function="internal">
        <lane id=":J18_1_0" index="0" speed="13.89" length="44.41" shape="-1037.28,-737.28 -1046.85,-745.47 -1053.72,-754.32 -1057.89,-763.80 -1059.36,-773.94"/>
        <lane id=":J18_1_1" index="1" speed="13.89" length="41.42" shape="-1035.40,-739.87 -1044.40,-747.55 -1050.86,-755.80 -1054.78,-764.61 -1056.16,-773.98"/>
    </edge>
    <edge id=":J18_3" function="internal">
        <lane id=":J18_3_0" index="0" speed="11.90" length="37.52" shape="-1035.40,-739.87 -1043.89,-747.19 -1048.09,-754.39 -1047.34,-761.92 -1040.98,-770.17"/>
    </edge>
    <edge id=":J18_4" function="internal">
        <lane id=":J18_4_0" index="0" speed="7.87" length="23.81" shape="-1035.40,-739.87 -1039.27,-744.94 -1039.27,-750.47 -1035.95,-754.89 -1029.82,-756.62"/>
    </edge>
    <edge id=":J18_5" function="internal">
        <lane id=":J18_5_0" index="0" speed="5.47" length="10.56" shape="-1029.94,-750.22 -1033.47,-749.97 -1034.93,-749.02 -1034.33,-747.39 -1031.66,-745.06"/>
    </edge>
    <edge id=":J18_6" function="internal">
        <lane id=":J18_6_0" index="0" speed="10.54" length="25.43" shape="-1029.94,-750.22 -1038.57,-749.68 -1044.75,-747.65 -1048.50,-744.15 -1049.82,-739.17"/>
    </edge>
    <edge id=":J18_7" function="internal">
        <lane id=":J18_7_0" index="0" speed="13.71" length="42.65" shape="-1029.94,-750.22 -1042.71,-751.92 -1051.87,-756.44 -1057.42,-763.78 -1059.36,-773.94"/>
        <lane id=":J18_7_1" index="1" speed="12.90" length="37.62" shape="-1029.88,-753.42 -1041.29,-754.90 -1049.48,-758.82 -1054.43,-765.17 -1056.16,-773.98"/>
    </edge>
    <edge id=":J18_9" function="internal">
        <lane id=":J18_9_0" index="0" speed="8.58" length="26.54" shape="-1029.88,-753.42 -1037.47,-755.06 -1042.67,-759.02 -1044.26,-764.37 -1040.98,-770.17"/>
    </edge>
    <edge id=":J18_10" function="internal">
        <lane id=":J18_10_0" index="0" speed="6.20" length="13.06" shape="-1036.61,-765.49 -1038.36,-763.10 -1037.80,-761.36 -1034.93,-760.27 -1029.75,-759.82"/>
    </edge>
    <edge id=":J18_11" function="internal">
        <lane id=":J18_11_0" index="0" speed="9.78" length="24.97" shape="-1036.61,-765.49 -1040.12,-760.65 -1040.47,-755.63 -1037.65,-750.43 -1031.66,-745.06"/>
    </edge>
    <edge id=":J18_12" function="internal">
        <lane id=":J18_12_0" index="0" speed="13.89" length="30.24" shape="-1036.61,-765.49 -1042.30,-759.30 -1046.40,-752.86 -1048.90,-746.14 -1049.82,-739.17"/>
        <lane id=":J18_12_1" index="1" speed="13.89" length="32.81" shape="-1038.79,-767.83 -1044.92,-761.15 -1049.33,-754.16 -1052.03,-746.85 -1053.02,-739.22"/>
    </edge>
    <edge id=":J18_14" function="internal">
        <lane id=":J18_14_0" index="0" speed="8.33" length="24.20" shape="-1038.79,-767.83 -1044.65,-764.40 -1050.24,-764.45 -1054.45,-767.72 -1056.16,-773.98"/>
    </edge>
    <edge id=":J18_15" function="internal">
        <lane id=":J18_15_0" index="0" speed="5.70" length="10.45" shape="-1049.77,-774.05 -1049.32,-771.10 -1048.07,-769.85 -1046.02,-770.32 -1043.16,-772.51"/>
    </edge>
    <edge id=":J18_16" function="internal">
        <lane id=":J18_16_0" index="0" speed="11.09" length="27.57" shape="-1049.77,-774.05 -1048.45,-767.97 -1044.68,-763.57 -1038.45,-760.86 -1029.75,-759.82"/>