<?xml version="1.0" encoding="UTF-8"?>

<!-- generated on 2024-05-24 00:07:50.454738 by randomTrips.py v1_20_0+0002-343658e7c64
<configuration>
    <net-file value="F:\Project\Thesis\Thesis\Sumo\traci\new\new.net.xml"/>
    <output-trip-file value="F:\Project\Thesis\Thesis\Sumo\traci\new\trips.trips.xml"/>
    <prefix value="trips"/>
    <vehicle-class value="passenger"/>
    <random value="True"/>
</configuration>
-->

<routes xmlns:xsi="http://www.w3.org/2001/XMLSchema-instance" xsi:noNamespaceSchemaLocation="http://sumo.dlr.de/xsd/routes_file.xsd">
    <vType id="trips_passenger" vClass="passenger"/>
    <trip id="trips0" depart="0.00" from="E34" to="-E27" type="trips_passenger"/>
    <trip id="trips1" depart="1.00" from="-E34" to="E33" type="trips_passenger"/>
    <trip id="trips2" depart="2.00" from="-E26" to="E29" type="trips_passenger"/>
    <trip id="trips3" depart="3.00" from="-E26" to="-E26" type="trips_passenger"/>
    <trip id="trips4" depart="4.00" from="E27" to="E31" type="trips_passenger"/>
    <trip id="trips5" depart="5.00" from="E29" to="-E26" type="trips_passenger"/>
    <trip id="trips6" depart="6.00" from="-E32" to="E27" type="trips_passenger"/>
    <trip id="trips7" depart="7.00" from="-E32" to="E29" type="trips_passenger"/>
    <trip id="trips8" depart="8.00" from="E32" to="-E27" type="trips_passenger"/>
    <trip id="trips9" depart="9.00" from="-E26" to="E27" type="trips_passenger"/>
    <trip id="trips10" depart="10.00" from="-E27" to="E30" type="trips_passenger"/>
    <trip id="trips11" depart="11.00" from="-E27" to="E27" type="trips_passenger"/>
    <trip id="trips12" depart="12.00" from="E32" to="E34" type="trips_passenger"/>
    <trip id="trips13" depart="13.00" from="E27" to="E32" type="trips_passenger"/>
    <trip id="trips14" depart="14.00" from="E30" to="-E30" type="trips_passenger"/>
    <trip id="trips15" depart="15.00" from="-E30" to="-E33" type="trips_passenger"/>
    <trip id="trips16" depart="16.00" from="E26" to="-E33" type="trips_passenger"/>
    <trip id="trips17" depart="17.00" from="-E32" to="-E34" type="trips_passenger"/>
    <trip id="trips18" depart="18.00" from="E29" to="-E30" type="trips_passenger"/>
    <trip id="trips19" depart="19.00" from="-E33" to="E33" type="trips_passenger"/>
    <trip id="trips20" depart="20.00" from="E32" to="-E33" type="trips_passenger"/>
    <trip id="trips21" depart="21.00" from="-E32" to="E27" type="trips_passenger"/>
    <trip id="trips22" depart="22.00" from="E33" to="E26" type="trips_passenger"/>
    <trip id="trips23" depart="23.00" from="E32" to="-E34" type="trips_passenger"/>
    <trip id="trips24" depart="24.00" from="-E27" to="-E29" type="trips_passenger"/>
    <trip id="trips25" depart="25.00" from="E31" to="-E29" type="trips_passenger"/>
    <trip id="trips26" depart="26.00" from="-E26" to="-E26" type="trips_passenger"/>
    <trip id="trips27" depart="27.00" from="E34" to="E30" type="trips_passenger"/>
    <trip id="trips28" depart="28.00" from="E30" to="E31" type="trips_passenger"/>
    <trip id="trips29" depart="29.00" from="-E32" to="E30" type="trips_passenger"/>
    <trip id="trips30" depart="30.00" from="E30" to="-E33" type="trips_passenger"/>
    <trip id="trips31" depart="31.00" from="E32" to="E31" type="trips_passenger"/>
    <trip id="trips32" depart="32.00" from="E33" to="-E32" type="trips_passenger"/>
    <trip id="trips33" depart="33.00" from="-E32" to="-E34" type="trips_passenger"/>
    <trip id="trips34" depart="34.00" from="E34" to="E26" type="trips_passenger"/>
    <trip id="trips35" depart="35.00" from="E32" to="-E31" type="trips_passenger"/>
    <trip id="trips36" depart="36.00" from="-E26" to="-E31" type="trips_passenger"/>
    <trip id="trips37" depart="37.00" from="E27" to="-E32" type="trips_passenger"/>
    <trip id="trips38" depart="38.00" from="-E31" to="E33" type="trips_passenger"/>
    <trip id="trips39" depart="39.00" from="E31" to="-E30" type="trips_passenger"/>
    <trip id="trips40" depart="40.00" from="E32" to="E34" type="trips_passenger"/>
    <trip id="trips41" depart="41.00" from="E29" to="E34" type="trips_passenger"/>
    <trip id="trips42" depart="42.00" from="-E33" to="-E29" type="trips_passenger"/>
    <trip id="trips43" depart="43.00" from="E34" to="E31" type="trips_passenger"/>
    <trip id="trips44" depart="44.00" from="-E30" to="E32" type="trips_passenger"/>
    <trip id="trips45" depart="45.00" from="E33" to="-E32" type="trips_passenger"/>
    <trip id="trips46" depart="46.00" from="-E31" to="-E33" type="trips_passenger"/>
    <trip id="trips47" depart="47.00" from="E27" to="E31" type="trips_passenger"/>
    <trip id="trips48" depart="48.00" from="E31" to="E33" type="trips_passenger"/>
    <trip id="trips49" depart="49.00" from="-E30" to="E32" type="trips_passenger"/>
    <trip id="trips50" depart="50.00" from="-E34" to="-E30" type="trips_passenger"/>
    <trip id="trips51" depart="51.00" from="E32" to="-E34" type="trips_passenger"/>
    <trip id="trips52" depart="52.00" from="-E33" to="E29" type="trips_passenger"/>
    <trip id="trips53" depart="53.00" from="-E34" to="E29" type="trips_passenger"/>
    <trip id="trips54" depart="54.00" from="E33" to="E31" type="trips_passenger"/>
    <trip id="trips55" depart="55.00" from="E30" to="E29" type="trips_passenger"/>
    <trip id="trips56" depart="56.00" from="-E33" to="-E33" type="trips_passenger"/>
    <trip id="trips57" depart="57.00" from="E33" to="E32" type="trips_passenger"/>
    <trip id="trips58" depart="58.00" from="E30" to="-E27" type="trips_passenger"/>
    <trip id="trips59" depart="59.00" from="-E27" to="-E29" type="trips_passenger"/>
    <trip id="trips60" depart="60.00" from="E33" to="E30" type="trips_passenger"/>
    <trip id="trips61" depart="61.00" from="E29" to="-E33" type="trips_passenger"/>
    <trip id="trips62" depart="62.00" from="E34" to="E27" type="trips_passenger"/>
    <trip id="trips63" depart="63.00" from="E29" to="E32" type="trips_passenger"/>
    <trip id="trips64" depart="64.00" from="-E31" to="-E26" type="trips_passenger"/>
    <trip id="trips65" depart="65.00" from="E30" to="-E30" type="trips_passenger"/>
    <trip id="trips66" depart="66.00" from="E30" to="-E32" type="trips_passenger"/>
    <trip id="trips67" depart="67.00" from="-E33" to="-E29" type="trips_passenger"/>
    <trip id="trips68" depart="68.00" from="-E27" to="E32" type="trips_passenger"/>
    <trip id="trips69" depart="69.00" from="E29" to="-E32" type="trips_passenger"/>
    <trip id="trips70" depart="70.00" from="-E34" to="-E32" type="trips_passenger"/>
    <trip id="trips71" depart="71.00" from="-E29" to="-E33" type="trips_passenger"/>
    <trip id="trips72" depart="72.00" from="E26" to="-E30" type="trips_passenger"/>
    <trip id="trips73" depart="73.00" from="E33" to="E27" type="trips_passenger"/>
    <trip id="trips74" depart="74.00" from="-E34" to="-E30" type="trips_passenger"/>
    <trip id="trips75" depart="75.00" from="-E34" to="E31" type="trips_passenger"/>
    <trip id="trips76" depart="76.00" from="E30" to="-E30" type="trips_passenger"/>
    <trip id="trips77" depart="77.00" from="-E29" to="-E34" type="trips_passenger"/>
    <trip id="trips78" depart="78.00" from="E33" to="-E29" type="trips_passenger"/>
    <trip id="trips79" depart="79.00" from="E33" to="-E34" type="trips_passenger"/>
    <trip id="trips80" depart="80.00" from="-E30" to="E29" type="trips_passenger"/>
    <trip id="trips81" depart="81.00" from="-E33" to="E31" type="trips_passenger"/>
    <trip id="trips82" depart="82.00" from="-E27" to="-E26" type="trips_passenger"/>
    <trip id="trips83" depart="83.00" from="-E34" to="-E34" type="trips_passenger"/>
    <trip id="trips84" depart="84.00" from="-E26" to="-E31" type="trips_passenger"/>
    <trip id="trips85" depart="85.00" from="E31" to="-E26" type="trips_passenger"/>
    <trip id="trips86" depart="86.00" from="E33" to="-E31" type="trips_passenger"/>
    <trip id="trips87" depart="87.00" from="-E34" to="E29" type="trips_passenger"/>
    <trip id="trips88" depart="88.00" from="-E34" to="E31" type="trips_passenger"/>
    <trip id="trips89" depart="89.00" from="E30" to="E34" type="trips_passenger"/>
    <trip id="trips90" depart="90.00" from="E33" to="-E29" type="trips_passenger"/>
    <trip id="trips91" depart="91.00" from="-E26" to="E31" type="trips_passenger"/>
    <trip id="trips92" depart="92.00" from="E31" to="E33" type="trips_passenger"/>
    <trip id="trips93" depart="93.00" from="E30" to="-E32" type="trips_passenger"/>
    <trip id="trips94" depart="94.00" from="-E31" to="-E30" type="trips_passenger"/>
    <trip id="trips95" depart="95.00" from="E31" to="E29" type="trips_passenger"/>
    <trip id="trips96" depart="96.00" from="-E31" to="-E32" type="trips_passenger"/>
    <trip id="trips97" depart="97.00" from="-E34" to="E27" type="trips_passenger"/>
    <trip id="trips98" depart="98.00" from="-E26" to="-E29" type="trips_passenger"/>
    <trip id="trips99" depart="99.00" from="-E33" to="-E32" type="trips_passenger"/>
    <trip id="trips100" depart="100.00" from="-E31" to="E29" type="trips_passenger"/>
    <trip id="trips101" depart="101.00" from="-E29" to="-E26" type="trips_passenger"/>
    <trip id="trips102" depart="102.00" from="-E34" to="E34" type="trips_passenger"/>
    <trip id="trips103" depart="103.00" from="-E27" to="E31" type="trips_passenger"/>
    <trip id="trips104" depart="104.00" from="E29" to="E32" type="trips_passenger"/>
    <trip id="trips105" depart="105.00" from="E31" to="-E34" type="trips_passenger"/>
    <trip id="trips106" depart="106.00" from="-E26" to="-E33" type="trips_passenger"/>
    <trip id="trips107" depart="107.00" from="E34" to="E29" type="trips_passenger"/>
    <trip id="trips108" depart="108.00" from="-E30" to="E27" type="trips_passenger"/>
    <trip id="trips109" depart="109.00" from="-E33" to="-E33" type="trips_passenger"/>
    <trip id="trips110" depart="110.00" from="-E31" to="E27" type="trips_passenger"/>
    <trip id="trips111" depart="111.00" from="E32" to="E32" type="trips_passenger"/>
    <trip id="trips112" depart="112.00" from="-E34" to="-E30" type="trips_passenger"/>
    <trip id="trips113" depart="113.00" from="E27" to="E27" type="trips_passenger"/>
    <trip id="trips114" depart="114.00" from="-E26" to="-E26" type="trips_passenger"/>
    <trip id="trips115" depart="115.00" from="-E29" to="E33" type="trips_passenger"/>
    <trip id="trips116" depart="116.00" from="E31" to="E32" type="trips_passenger"/>
    <trip id="trips117" depart="117.00" from="E29" to="-E31" type="trips_passenger"/>
    <trip id="trips118" depart="118.00" from="E29" to="-E29" type="trips_passenger"/>
    <trip id="trips119" depart="119.00" from="E32" to="-E29" type="trips_passenger"/>
    <trip id="trips120" depart="120.00" from="E27" to="E32" type="trips_passenger"/>
    <trip id="trips121" depart="121.00" from="-E30" to="-E34" type="trips_passenger"/>
    <trip id="trips122" depart="122.00" from="-E31" to="E27" type="trips_passenger"/>
    <trip id="trips123" depart="123.00" from="-E30" to="-E33" type="trips_passenger"/>
    <trip id="trips124" depart="124.00" from="E32" to="-E32" type="trips_passenger"/>
    <trip id="trips125" depart="125.00" from="-E33" to="-E30" type="trips_passenger"/>
    <trip id="trips126" depart="126.00" from="E34" to="-E33" type="trips_passenger"/>
    <trip id="trips127" depart="127.00" from="-E26" to="-E31" type="trips_passenger"/>
    <trip id="trips128" depart="128.00" from="E34" to="E31" type="trips_passenger"/>
    <trip id="trips129" depart="129.00" from="-E26" to="-E30" type="trips_passenger"/>
    <trip id="trips130" depart="130.00" from="E26" to="E33" type="trips_passenger"/>
    <trip id="trips131" depart="131.00" from="E34" to="-E32" type="trips_passenger"/>
    <trip id="trips132" depart="132.00" from="E30" to="-E30" type="trips_passenger"/>
    <trip id="trips133" depart="133.00" from="-E32" to="E32" type="trips_passenger"/>
    <trip id="trips134" depart="134.00" from="-E32" to="E29" type="trips_passenger"/>
    <trip id="trips135" depart="135.00" from="E34" to="-E27" type="trips_passenger"/>
    <trip id="trips136" depart="136.00" from="E29" to="E33" type="trips_passenger"/>
    <trip id="trips137" depart="137.00" from="E29" to="-E32" type="trips_passenger"/>
    <trip id="trips138" depart="138.00" from="E30" to="-E33" type="trips_passenger"/>
    <trip id="trips139" depart="139.00" from="-E34" to="-E27" type="trips_passenger"/>
    <trip id="trips140" depart="140.00" from="E26" to="-E32" type="trips_passenger"/>
    <trip id="trips141" depart="141.00" from="-E31" to="E32" type="trips_passenger"/>
    <trip id="trips142" depart="142.00" from="-E30" to="E29" type="trips_passenger"/>
    <trip id="trips143" depart="143.00" from="-E27" to="-E30" type="trips_passenger"/>
    <trip id="trips144" depart="144.00" from="-E31" to="E29" type="trips_passenger"/>
    <trip id="trips145" depart="145.00" from="-E29" to="E29" type="trips_passenger"/>
    <trip id="trips146" depart="146.00" from="-E29" to="E26" type="trips_passenger"/>
    <trip id="trips147" depart="147.00" from="-E26" to="E34" type="trips_passenger"/>
    <trip id="trips148" depart="148.00" from="E31" to="-E31" type="trips_passenger"/>
    <trip id="trips149" depart="149.00" from="E30" to="E26" type="trips_passenger"/>
    <trip id="trips150" depart="150.00" from="E30" to="-E26" type="trips_passenger"/>
    <trip id="trips151" depart="151.00" from="E30" to="E26" type="trips_passenger"/>
    <trip id="trips152" depart="152.00" from="-E26" to="-E26" type="trips_passenger"/>
    <trip id="trips153" depart="153.00" from="E30" to="-E34" type="trips_passenger"/>
    <trip id="trips154" depart="154.00" from="E26" to="E32" type="trips_passenger"/>
    <trip id="trips155" depart="155.00" from="-E34" to="-E32" type="trips_passenger"/>
    <trip id="trips156" depart="156.00" from="E33" to="-E30" type="trips_passenger"/>
    <trip id="trips157" depart="157.00" from="E31" to="E33" type="trips_passenger"/>
    <trip id="trips158" depart="158.00" from="-E27" to="-E30" type="trips_passenger"/>
    <trip id="trips159" depart="159.00" from="E29" to="E31" type="trips_passenger"/>
    <trip id="trips160" depart="160.00" from="-E30" to="E33" type="trips_passenger"/>
    <trip id="trips161" depart="161.00" from="-E34" to="E26" type="trips_passenger"/>
    <trip id="trips162" depart="162.00" from="E31" to="E30" type="trips_passenger"/>
    <trip id="trips163" depart="163.00" from="E26" to="E33" type="trips_passenger"/>
    <trip id="trips164" depart="164.00" from="-E26" to="-E29" type="trips_passenger"/>
    <trip id="trips165" depart="165.00" from="-E26" to="E33" type="trips_passenger"/>
    <trip id="trips166" depart="166.00" from="E32" to="-E34" type="trips_passenger"/>
    <trip id="trips167" depart="167.00" from="-E32" to="E30" type="trips_passenger"/>
    <trip id="trips168" depart="168.00" from="-E27" to="-E34" type="trips_passenger"/>
    <trip id="trips169" depart="169.00" from="-E33" to="E27" type="trips_passenger"/>
    <trip id="trips170" depart="170.00" from="-E31" to="E29" type="trips_passenger"/>
    <trip id="trips171" depart="171.00" from="-E26" to="-E26" type="trips_passenger"/>
    <trip id="trips172" depart="172.00" from="E33" to="-E32" type="trips_passenger"/>
    <trip id="trips173" depart="173.00" from="E33" to="-E33" type="trips_passenger"/>
    <trip id="trips174" depart="174.00" from="E29" to="-E29" type="trips_passenger"/>
    <trip id="trips175" depart="175.00" from="E27" to="-E34" type="trips_passenger"/>
    <trip id="trips176" depart="176.00" from="-E32" to="E32" type="trips_passenger"/>
    <trip id="trips177" depart="177.00" from="-E30" to="E31" type="trips_passenger"/>
    <trip id="trips178" depart="178.00" from="-E34" to="-E27" type="trips_passenger"/>
    <trip id="trips179" depart="179.00" from="-E31" to="-E34" type="trips_passenger"/>
    <trip id="trips180" depart="180.00" from="-E34" to="E34" type="trips_passenger"/>
    <trip id="trips181" depart="181.00" from="-E32" to="-E29" type="trips_passenger"/>
    <trip id="trips182" depart="182.00" from="-E34" to="-E33" type="trips_passenger"/>
    <trip id="trips183" depart="183.00" from="E31" to="-E27" type="trips_passenger"/>
    <trip id="trips184" depart="184.00" from="-E26" to="E33" type="trips_passenger"/>
    <trip id="trips185" depart="185.00" from="E31" to="E31" type="trips_passenger"/>
    <trip id="trips186" depart="186.00" from="E33" to="E33" type="trips_passenger"/>
    <trip id="trips187" depart="187.00" from="E31" to="E30" type="trips_passenger"/>
    <trip id="trips188" depart="188.00" from="E29" to="-E33" type="trips_passenger"/>
    <trip id="trips189" depart="189.00" from="-E34" to="-E30" type="trips_passenger"/>
    <trip id="trips190" depart="190.00" from="E27" to="-E34" type="trips_passenger"/>
    <trip id="trips191" depart="191.00" from="-E32" to="-E34" type="trips_passenger"/>
    <trip id="trips192" depart="192.00" from="E27" to="E33" type="trips_passenger"/>
    <trip id="trips193" depart="193.00" from="E34" to="E29" type="trips_passenger"/>
    <trip id="trips194" depart="194.00" from="E31" to="-E32" type="trips_passenger"/>
    <trip id="trips195" depart="195.00" from="-E31" to="-E34" type="trips_passenger"/>
    <trip id="trips196" depart="196.00" from="-E27" to="-E32" type="trips_passenger"/>
    <trip id="trips197" depart="197.00" from="E29" to="E34" type="trips_passenger"/>
    <trip id="trips198" depart="198.00" from="-E26" to="-E27" type="trips_passenger"/>
    <trip id="trips199" depart="199.00" from="E33" to="-E34" type="trips_passenger"/>
    <trip id="trips200" depart="200.00" from="-E26" to="E34" type="trips_passenger"/>
    <trip id="trips201" depart="201.00" from="-E34" to="E31" type="trips_passenger"/>
    <trip id="trips202" depart="202.00" from="-E32" to="E32" type="trips_passenger"/>
    <trip id="trips203" depart="203.00" from="-E33" to="-E30" type="trips_passenger"/>
    <trip id="trips204" depart="204.00" from="-E32" to="E29" type="trips_passenger"/>
    <trip id="trips205" depart="205.00" from="E31" to="E31" type="trips_passenger"/>
    <trip id="trips206" depart="206.00" from="-E26" to="-E26" type="trips_passenger"/>
    <trip id="trips207" depart="207.00" from="E32" to="-E33" type="trips_passenger"/>
    <trip id="trips208" depart="208.00" from="-E33" to="-E30" type="trips_passenger"/>
    <trip id="trips209" depart="209.00" from="-E27" to="E33" type="trips_passenger"/>
    <trip id="trips210" depart="210.00" from="-E31" to="E33" type="trips_passenger"/>
    <trip id="trips211" depart="211.00" from="-E34" to="-E27" type="trips_passenger"/>
    <trip id="trips212" depart="212.00" from="-E29" to="E32" type="trips_passenger"/>
    <trip id="trips213" depart="213.00" from="E33" to="-E34" type="trips_passenger"/>
    <trip id="trips214" depart="214.00" from="E27" to="-E30" type="trips_passenger"/>
    <trip id="trips215" depart="215.00" from="E30" to="-E32" type="trips_passenger"/>
    <trip id="trips216" depart="216.00" from="E34" to="-E26" type="trips_passenger"/>
    <trip id="trips217" depart="217.00" from="E33" to="E26" type="trips_passenger"/>
    <trip id="trips218" depart="218.00" from="-E32" to="E32" type="trips_passenger"/>
    <trip id="trips219" depart="219.00" from="-E31" to="-E33" type="trips_passenger"/>
    <trip id="trips220" depart="220.00" from="-E26" to="-E29" type="trips_passenger"/>
    <trip id="trips221" depart="221.00" from="-E32" to="E31" type="trips_passenger"/>
    <trip id="trips222" depart="222.00" from="-E34" to="-E26" type="trips_passenger"/>
    <trip id="trips223" depart="223.00" from="E32" to="E33" type="trips_passenger"/>
    <trip id="trips224" depart="224.00" from="-E29" to="E32" type="trips_passenger"/>
    <trip id="trips225" depart="225.00" from="E29" to="-E32" type="trips_passenger"/>
    <trip id="trips226" depart="226.00" from="-E31" to="E30" type="trips_passenger"/>
    <trip id="trips227" depart="227.00" from="-E27" to="-E32" type="trips_passenger"/>
    <trip id="trips228" depart="228.00" from="E34" to="-E29" type="trips_passenger"/>
    <trip id="trips229" depart="229.00" from="-E26" to="-E31" type="trips_passenger"/>
    <trip id="trips230" depart="230.00" from="-E32" to="E31" type="trips_passenger"/>
    <trip id="trips231" depart="231.00" from="-E34" to="-E27" type="trips_passenger"/>
    <trip id="trips232" depart="232.00" from="-E32" to="E31" type="trips_passenger"/>
    <trip id="trips233" depart="233.00" from="E29" to="-E32" type="trips_passenger"/>
    <trip id="trips234" depart="234.00" from="E29" to="E26" type="trips_passenger"/>
    <trip id="trips235" depart="235.00" from="E31" to="-E33" type="trips_passenger"/>
    <trip id="trips236" depart="236.00" from="-E31" to="-E32" type="trips_passenger"/>
    <trip id="trips237" depart="237.00" from="-E30" to="E32" type="trips_passenger"/>
    <trip id="trips238" depart="238.00" from="-E31" to="E26" type="trips_passenger"/>
    <trip id="trips239" depart="239.00" from="-E30" to="-E26" type="trips_passenger"/>
    <trip id="trips240" depart="240.00" from="-E33" to="E30" type="trips_passenger"/>
    <trip id="trips241" depart="241.00" from="E29" to="E26" type="trips_passenger"/>
    <trip id="trips242" depart="242.00" from="E26" to="-E26" type="trips_passenger"/>
    <trip id="trips243" depart="243.00" from="-E34" to="-E26" type="trips_passenger"/>
    <trip id="trips244" depart="244.00" from="-E29" to="-E31" type="trips_passenger"/>
    <trip id="trips245" depart="245.00" from="E34" to="E30" type="trips_passenger"/>
    <trip id="trips246" depart="246.00" from="E31" to="E29" type="trips_passenger"/>
    <trip id="trips247" depart="247.00" from="E30" to="-E30" type="trips_passenger"/>
    <trip id="trips248" depart="248.00" from="-E34" to="-E34" type="trips_passenger"/>
    <trip id="trips249" depart="249.00" from="E31" to="-E32" type="trips_passenger"/>
    <trip id="trips250" depart="250.00" from="-E30" to="-E29" type="trips_passenger"/>
    <trip id="trips251" depart="251.00" from="E33" to="-E29" type="trips_passenger"/>
    <trip id="trips252" depart="252.00" from="E26" to="E27" type="trips_passenger"/>
    <trip id="trips253" depart="253.00" from="E33" to="-E30" type="trips_passenger"/>
    <trip id="trips254" depart="254.00" from="-E29" to="E31" type="trips_passenger"/>
    <trip id="trips255" depart="255.00" from="E27" to="E26" type="trips_passenger"/>
    <trip id="trips256" depart="256.00" from="E32" to="E32" type="trips_passenger"/>
    <trip id="trips257" depart="257.00" from="E34" to="E30" type="trips_passenger"/>
    <trip id="trips258" depart="258.00" from="E31" to="-E31" type="trips_passenger"/>
    <trip id="trips259" depart="259.00" from="-E30" to="E31" type="trips_passenger"/>
    <trip id="trips260" depart="260.00" from="-E27" to="E30" type="trips_passenger"/>
    <trip id="trips261" depart="261.00" from="-E29" to="E32" type="trips_passenger"/>
    <trip id="trips262" depart="262.00" from="E32" to="-E34" type="trips_passenger"/>
    <trip id="trips263" depart="263.00" from="E30" to="-E26" type="trips_passenger"/>
    <trip id="trips264" depart="264.00" from="E31" to="E34" type="trips_passenger"/>
    <trip id="trips265" depart="265.00" from="-E34" to="E29" type="trips_passenger"/>
    <trip id="trips266" depart="266.00" from="-E27" to="-E34" type="trips_passenger"/>
    <trip id="trips267" depart="267.00" from="-E32" to="-E32" type="trips_passenger"/>
    <trip id="trips268" depart="268.00" from="E26" to="-E31" type="trips_passenger"/>
    <trip id="trips269" depart="269.00" from="-E29" to="-E30" type="trips_passenger"/>
    <trip id="trips270" depart="270.00" from="E29" to="E29" type="trips_passenger"/>
    <trip id="trips271" depart="271.00" from="-E34" to="-E26" type="trips_passenger"/>
    <trip id="trips272" depart="272.00" from="-E31" to="-E34" type="trips_passenger"/>
    <trip id="trips273" depart="273.00" from="E27" to="-E29" type="trips_passenger"/>
    <trip id="trips274" depart="274.00" from="E30" to="-E27" type="trips_passenger"/>
    <trip id="trips275" depart="275.00" from="E30" to="E34" type="trips_passenger"/>
    <trip id="trips276" depart="276.00" from="-E26" to="E33" type="trips_passenger"/>
    <trip id="trips277" depart="277.00" from="-E32" to="E27" type="trips_passenger"/>
    <trip id="trips278" depart="278.00" from="E30" to="-E34" type="trips_passenger"/>
    <trip id="trips279" depart="279.00" from="-E27" to="E30" type="trips_passenger"/>
    <trip id="trips280" depart="280.00" from="-E34" to="-E29" type="trips_passenger"/>
    <trip id="trips281" depart="281.00" from="E34" to="E26" type="trips_passenger"/>
    <trip id="trips282" depart="282.00" from="-E32" to="-E31" type="trips_passenger"/>
    <trip id="trips283" depart="283.00" from="-E29" to="E34" type="trips_passenger"/>
    <trip id="trips284" depart="284.00" from="E31" to="-E33" type="trips_passenger"/>
    <trip id="trips285" depart="285.00" from="E31" to="-E30" type="trips_passenger"/>
    <trip id="trips286" depart="286.00" from="-E31" to="E26" type="trips_passenger"/>
    <trip id="trips287" depart="287.00" from="E31" to="-E32" type="trips_passenger"/>
    <trip id="trips288" depart="288.00" from="E33" to="E30" type="trips_passenger"/>
    <trip id="trips289" depart="289.00" from="-E27" to="-E29" type="trips_passenger"/>
    <trip id="trips290" depart="290.00" from="E31" to="-E26" type="trips_passenger"/>
    <trip id="trips291" depart="291.00" from="-E30" to="E30" type="trips_passenger"/>
    <trip id="trips292" depart="292.00" from="E32" to="-E34" type="trips_passenger"/>
    <trip id="trips293" depart="293.00" from="-E32" to="E34" type="trips_passenger"/>
    <trip id="trips294" depart="294.00" from="-E34" to="E27" type="trips_passenger"/>
    <trip id="trips295" depart="295.00" from="-E26" to="-E32" type="trips_passenger"/>
    <trip id="trips296" depart="296.00" from="E30" to="-E31" type="trips_passenger"/>
    <trip id="trips297" depart="297.00" from="-E27" to="E26" type="trips_passenger"/>
    <trip id="trips298" depart="298.00" from="E26" to="-E27" type="trips_passenger"/>
    <trip id="trips299" depart="299.00" from="E31" to="-E31" type="trips_passenger"/>
    <trip id="trips300" depart="300.00" from="E26" to="-E32" type="trips_passenger"/>
    <trip id="trips301" depart="301.00" from="E27" to="E33" type="trips_passenger"/>
    <trip id="trips302" depart="302.00" from="-E26" to="E26" type="trips_passenger"/>
    <trip id="trips303" depart="303.00" from="-E32" to="-E34" type="trips_passenger"/>
    <trip id="trips304" depart="304.00" from="E31" to="-E26" type="trips_passenger"/>
    <trip id="trips305" depart="305.00" from="-E31" to="E27" type="trips_passenger"/>
    <trip id="trips306" depart="306.00" from="-E30" to="E26" type="trips_passenger"/>
    <trip id="trips307" depart="307.00" from="-E30" to="-E31" type="trips_passenger"/>
    <trip id="trips308" depart="308.00" from="-E30" to="-E32" type="trips_passenger"/>
    <trip id="trips309" depart="309.00" from="-E31" to="E31" type="trips_passenger"/>
    <trip id="trips310" depart="310.00" from="E33" to="-E34" type="trips_passenger"/>
    <trip id="trips311" depart="311.00" from="-E29" to="-E31" type="trips_passenger"/>
    <trip id="trips312" depart="312.00" from="-E33" to="E34" type="trips_passenger"/>
    <trip id="trips313" depart="313.00" from="-E34" to="-E29" type="trips_passenger"/>
    <trip id="trips314" depart="314.00" from="E26" to="-E34" type="trips_passenger"/>
    <trip id="trips315" depart="315.00" from="-E34" to="E26" type="trips_passenger"/>
    <trip id="trips316" depart="316.00" from="E31" to="-E26" type="trips_passenger"/>
    <trip id="trips317" depart="317.00" from="-E33" to="-E27" type="trips_passenger"/>
    <trip id="trips318" depart="318.00" from="-E33" to="E34" type="trips_passenger"/>
    <trip id="trips319" depart="319.00" from="E34" to="-E31" type="trips_passenger"/>
    <trip id="trips320" depart="320.00" from="-E29" to="-E27" type="trips_passenger"/>
    <trip id="trips321" depart="321.00" from="-E34" to="-E33" type="trips_passenger"/>
    <trip id="trips322" depart="322.00" from="-E27" to="E33" type="trips_passenger"/>
    <trip id="trips323" depart="323.00" from="E31" to="-E31" type="trips_passenger"/>
    <trip id="trips324" depart="324.00" from="E27" to="-E29" type="trips_passenger"/>
    <trip id="trips325" depart="325.00" from="E27" to="E34" type="trips_passenger"/>
    <trip id="trips326" depart="326.00" from="E34" to="E34" type="trips_passenger"/>
    <trip id="trips327" depart="327.00" from="-E34" to="E34" type="trips_passenger"/>
    <trip id="trips328" depart="328.00" from="E27" to="-E32" type="trips_passenger"/>
    <trip id="trips329" depart="329.00" from="E32" to="E26" type="trips_passenger"/>
    <trip id="trips330" depart="330.00" from="E26" to="E27" type="trips_passenger"/>
    <trip id="trips331" depart="331.00" from="-E31" to="-E26" type="trips_passenger"/>
    <trip id="trips332" depart="332.00" from="-E27" to="-E26" type="trips_passenger"/>
    <trip id="trips333" depart="333.00" from="E26" to="-E26" type="trips_passenger"/>
    <trip id="trips334" depart="334.00" from="-E32" to="-E29" type="trips_passenger"/>
    <trip id="trips335" depart="335.00" from="-E32" to="-E33" type="trips_passenger"/>
    <trip id="trips336" depart="336.00" from="E26" to="E32" type="trips_passenger"/>
    <trip id="trips337" depart="337.00" from="E33" to="-E34" type="trips_passenger"/>
    <trip id="trips338" depart="338.00" from="E34" to="E33" type="trips_passenger"/>
    <trip id="trips339" depart="339.00" from="E27" to="E30" type="trips_passenger"/>
    <trip id="trips340" depart="340.00" from="E30" to="E31" type="trips_passenger"/>
    <trip id="trips341" depart="341.00" from="E29" to="-E29" type="trips_passenger"/>
    <trip id="trips342" depart="342.00" from="E27" to="E30" type="trips_passenger"/>
    <trip id="trips343" depart="343.00" from="E27" to="-E34" type="trips_passenger"/>