<?xml version="1.0" encoding="UTF-8"?>

<!-- generated on 2024-06-12 11:54:44.854477 by randomTrips.py v1_20_0+0002-343658e7c64
<configuration>
    <net-file value="F:\Project\Thesis\Thesis\Sumo\traci\new\new.net.xml"/>
    <output-trip-file value="F:\Project\Thesis\Thesis\Sumo\traci\new\truck.trips.xml"/>
    <prefix value="truck"/>
    <vehicle-class value="truck"/>
    <random value="True"/>
    <random-depart value="True"/>
</configuration>
-->

<routes xmlns:xsi="http://www.w3.org/2001/XMLSchema-instance" xsi:noNamespaceSchemaLocation="http://sumo.dlr.de/xsd/routes_file.xsd">
    <vType id="truck_truck" vClass="truck"/>
    <trip id="truck0" depart="1.00" from="E21" to="-E13" type="truck_truck"/>
    <trip id="truck1" depart="2.00" from="E12" to="-E38" type="truck_truck"/>
    <trip id="truck2" depart="3.00" from="E105" to="E18" type="truck_truck"/>
    <trip id="truck3" depart="3.00" from="E102" to="-E28" type="truck_truck"/>
    <trip id="truck4" depart="4.00" from="-E55" to="-E63" type="truck_truck"/>
    <trip id="truck5" depart="5.00" from="-E73" to="E56" type="truck_truck"/>
    <trip id="truck6" depart="7.00" from="-E49" to="E28" type="truck_truck"/>
    <trip id="truck7" depart="10.00" from="-E57" to="E74" type="truck_truck"/>
    <trip id="truck8" depart="11.00" from="E97" to="-E99" type="truck_truck"/>
    <trip id="truck9" depart="11.00" from="-E102" to="-E39" type="truck_truck"/>
    <trip id="truck10" depart="11.00" from="E4" to="-E29" type="truck_truck"/>
    <trip id="truck11" depart="11.00" from="-E104" to="-E93" type="truck_truck"/>
    <trip id="truck12" depart="12.00" from="-E20" to="E46" type="truck_truck"/>
    <trip id="truck13" depart="14.00" from="-E75" to="E103" type="truck_truck"/>
    <trip id="truck14" depart="15.00" from="-E84" to="E2" type="truck_truck"/>
    <trip id="truck15" depart="16.00" from="-E103" to="-E8" type="truck_truck"/>
    <trip id="truck16" depart="17.00" from="-E89" to="-E39" type="truck_truck"/>
    <trip id="truck17" depart="18.00" from="E98" to="E14" type="truck_truck"/>
    <trip id="truck18" depart="23.00" from="E0" to="-E90" type="truck_truck"/>
    <trip id="truck19" depart="26.00" from="-E90" to="E100" type="truck_truck"/>
    <trip id="truck20" depart="27.00" from="-E39" to="-E45" type="truck_truck"/>
    <trip id="truck21" depart="27.00" from="-E10" to="-E64" type="truck_truck"/>
    <trip id="truck22" depart="28.00" from="E80" to="E67" type="truck_truck"/>
    <trip id="truck23" depart="29.00" from="E6" to="E103" type="truck_truck"/>
    <trip id="truck24" depart="29.00" from="E107" to="-E39" type="truck_truck"/>
    <trip id="truck25" depart="29.00" from="-E41" to="E54" type="truck_truck"/>
    <trip id="truck26" depart="30.00" from="-E1" to="-E63" type="truck_truck"/>
    <trip id="truck27" depart="30.00" from="E33" to="-E89" type="truck_truck"/>
    <trip id="truck28" depart="30.00" from="-E14" to="-E45" type="truck_truck"/>
    <trip id="truck29" depart="31.00" from="E52" to="-E79" type="truck_truck"/>
    <trip id="truck30" depart="31.00" from="E45" to="-E77" type="truck_truck"/>
    <trip id="truck31" depart="32.00" from="E35" to="E43" type="truck_truck"/>
    <trip id="truck32" depart="32.00" from="-E28" to="E60" type="truck_truck"/>
    <trip id="truck33" depart="33.00" from="E2" to="-E2" type="truck_truck"/>
    <trip id="truck34" depart="33.00" from="E72" to="E15" type="truck_truck"/>
    <trip id="truck35" depart="34.00" from="E95" to="E36" type="truck_truck"/>
    <trip id="truck36" depart="34.00" from="E36" to="-E66" type="truck_truck"/>
    <trip id="truck37" depart="34.00" from="-E93" to="E30" type="truck_truck"/>
    <trip id="truck38" depart="34.00" from="E18" to="-E28" type="truck_truck"/>
    <trip id="truck39" depart="34.00" from="E20" to="E34" type="truck_truck"/>
    <trip id="truck40" depart="34.00" from="E95" to="-E3" type="truck_truck"/>
    <trip id="truck41" depart="37.00" from="-E3" to="-E107" type="truck_truck"/>
    <trip id="truck42" depart="37.00" from="E81" to="E89" type="truck_truck"/>
    <trip id="truck43" depart="37.00" from="-E100" to="-E82" type="truck_truck"/>
    <trip id="truck44" depart="38.00" from="E99" to="-E103" type="truck_truck"/>
    <trip id="truck45" depart="42.00" from="E76" to="E38" type="truck_truck"/>
    <trip id="truck46" depart="42.00" from="E79" to="E37" type="truck_truck"/>
    <trip id="truck47" depart="46.00" from="E54" to="E83" type="truck_truck"/>
    <trip id="truck48" depart="47.00" from="E85" to="-E67" type="truck_truck"/>
    <trip id="truck49" depart="50.00" from="-E46" to="-E95" type="truck_truck"/>
    <trip id="truck50" depart="50.00" from="E33" to="E15" type="truck_truck"/>
    <trip id="truck51" depart="52.00" from="-E65" to="E99" type="truck_truck"/>
    <trip id="truck52" depart="52.00" from="-E11" to="-E8" type="truck_truck"/>
    <trip id="truck53" depart="53.00" from="E77" to="E52" type="truck_truck"/>
    <trip id="truck54" depart="53.00" from="E44" to="E15" type="truck_truck"/>
    <trip id="truck55" depart="53.00" from="-E87" to="E86" type="truck_truck"/>
    <trip id="truck56" depart="54.00" from="E77" to="E105" type="truck_truck"/>
    <trip id="truck57" depart="54.00" from="E44" to="-E61" type="truck_truck"/>
    <trip id="truck58" depart="56.00" from="E99" to="-E97" type="truck_truck"/>
    <trip id="truck59" depart="56.00" from="E91" to="E103" type="truck_truck"/>
    <trip id="truck60" depart="57.00" from="E102" to="E80" type="truck_truck"/>
    <trip id="truck61" depart="57.00" from="E91" to="-E81" type="truck_truck"/>
    <trip id="truck62" depart="58.00" from="-E40" to="-E86" type="truck_truck"/>
    <trip id="truck63" depart="58.00" from="-E78" to="E20" type="truck_truck"/>
    <trip id="truck64" depart="59.00" from="-E81" to="-E98" type="truck_truck"/>
    <trip id="truck65" depart="60.00" from="-E95" to="-E14" type="truck_truck"/>
    <trip id="truck66" depart="61.00" from="E93" to="E53" type="truck_truck"/>
    <trip id="truck67" depart="62.00" from="-E53" to="-E89" type="truck_truck"/>
    <trip id="truck68" depart="66.00" from="E56" to="-E34" type="truck_truck"/>
    <trip id="truck69" depart="69.00" from="E86" to="E52" type="truck_truck"/>
    <trip id="truck70" depart="69.00" from="-E106" to="-E103" type="truck_truck"/>
    <trip id="truck71" depart="72.00" from="E70" to="-E38" type="truck_truck"/>
    <trip id="truck72" depart="72.00" from="E79" to="E53" type="truck_truck"/>
    <trip id="truck73" depart="74.00" from="E15" to="-E19" type="truck_truck"/>
    <trip id="truck74" depart="74.00" from="-E59" to="-E24" type="truck_truck"/>
    <trip id="truck75" depart="74.00" from="E83" to="E18" type="truck_truck"/>
    <trip id="truck76" depart="75.00" from="-E65" to="-E82" type="truck_truck"/>
    <trip id="truck77" depart="75.00" from="E14" to="E107" type="truck_truck"/>
    <trip id="truck78" depart="76.00" from="E55" to="E57" type="truck_truck"/>
    <trip id="truck79" depart="78.00" from="-E7" to="E62" type="truck_truck"/>
    <trip id="truck80" depart="78.00" from="E81" to="E53" type="truck_truck"/>
    <trip id="truck81" depart="80.00" from="-E35" to="E95" type="truck_truck"/>
    <trip id="truck82" depart="81.00" from="E76" to="E56" type="truck_truck"/>
    <trip id="truck83" depart="81.00" from="E2" to="E20" type="truck_truck"/>
    <trip id="truck84" depart="84.00" from="E44" to="E104" type="truck_truck"/>
    <trip id="truck85" depart="84.00" from="-E0" to="E71" type="truck_truck"/>
    <trip id="truck86" depart="85.00" from="E71" to="E6" type="truck_truck"/>
    <trip id="truck87" depart="88.00" from="-E41" to="-E29" type="truck_truck"/>
    <trip id="truck88" depart="88.00" from="-E54" to="-E15" type="truck_truck"/>
    <trip id="truck89" depart="90.00" from="-E59" to="E3" type="truck_truck"/>
    <trip id="truck90" depart="93.00" from="-E66" to="-E105" type="truck_truck"/>
    <trip id="truck91" depart="93.00" from="-E14" to="-E83" type="truck_truck"/>
    <trip id="truck92" depart="94.00" from="-E106" to="E90" type="truck_truck"/>
    <trip id="truck93" depart="95.00" from="E40" to="E69" type="truck_truck"/>
    <trip id="truck94" depart="95.00" from="-E13" to="-E78" type="truck_truck"/>
    <trip id="truck95" depart="95.00" from="E23" to="-E3" type="truck_truck"/>
    <trip id="truck96" depart="96.00" from="-E68" to="E100" type="truck_truck"/>
    <trip id="truck97" depart="97.00" from="E34" to="-E14" type="truck_truck"/>
    <trip id="truck98" depart="98.00" from="E4" to="E32" type="truck_truck"/>
    <trip id="truck99" depart="99.00" from="-E22" to="E61" type="truck_truck"/>
    <trip id="truck100" depart="100.00" from="-E61" to="-E0" type="truck_truck"/>
    <trip id="truck101" depart="100.00" from="-E18" to="-E20" type="truck_truck"/>
    <trip id="truck102" depart="100.00" from="E55" to="-E53" type="truck_truck"/>
    <trip id="truck103" depart="100.00" from="E21" to="-E59" type="truck_truck"/>
    <trip id="truck104" depart="101.00" from="E100" to="-E75" type="truck_truck"/>
    <trip id="truck105" depart="101.00" from="-E84" to="-E5" type="truck_truck"/>
    <trip id="truck106" depart="102.00" from="E77" to="E101" type="truck_truck"/>
    <trip id="truck107" depart="102.00" from="E76" to="-E68" type="truck_truck"/>
    <trip id="truck108" depart="103.00" from="-E72" to="-E74" type="truck_truck"/>
    <trip id="truck109" depart="104.00" from="E65" to="-E6" type="truck_truck"/>
    <trip id="truck110" depart="104.00" from="-E35" to="E59" type="truck_truck"/>
    <trip id="truck111" depart="105.00" from="E22" to="E52" type="truck_truck"/>
    <trip id="truck112" depart="106.00" from="E22" to="E59" type="truck_truck"/>
    <trip id="truck113" depart="108.00" from="E13" to="E77" type="truck_truck"/>
    <trip id="truck114" depart="108.00" from="E90" to="-E105" type="truck_truck"/>
    <trip id="truck115" depart="109.00" from="E12" to="E89" type="truck_truck"/>
    <trip id="truck116" depart="109.00" from="E74" to="E34" type="truck_truck"/>
    <trip id="truck117" depart="110.00" from="-E77" to="-E2" type="truck_truck"/>
    <trip id="truck118" depart="111.00" from="-E22" to="E40" type="truck_truck"/>
    <trip id="truck119" depart="113.00" from="-E36" to="-E101" type="truck_truck"/>
    <trip id="truck120" depart="115.00" from="-E86" to="E90" type="truck_truck"/>
    <trip id="truck121" depart="115.00" from="-E3" to="E100" type="truck_truck"/>
    <trip id="truck122" depart="115.00" from="E41" to="E11" type="truck_truck"/>
    <trip id="truck123" depart="115.00" from="-E23" to="-E99" type="truck_truck"/>
    <trip id="truck124" depart="116.00" from="-E66" to="E72" type="truck_truck"/>
    <trip id="truck125" depart="116.00" from="-E25" to="-E33" type="truck_truck"/>
    <trip id="truck126" depart="117.00" from="E77" to="E43" type="truck_truck"/>
    <trip id="truck127" depart="118.00" from="E80" to="-E67" type="truck_truck"/>
    <trip id="truck128" depart="118.00" from="-E81" to="-E103" type="truck_truck"/>
    <trip id="truck129" depart="119.00" from="E20" to="E56" type="truck_truck"/>
    <trip id="truck130" depart="120.00" from="E19" to="-E45" type="truck_truck"/>
    <trip id="truck131" depart="123.00" from="E6" to="E71" type="truck_truck"/>
    <trip id="truck132" depart="124.00" from="E101" to="-E101" type="truck_truck"/>
    <trip id="truck133" depart="125.00" from="-E82" to="E70" type="truck_truck"/>
    <trip id="truck134" depart="126.00" from="-E15" to="-E19" type="truck_truck"/>
    <trip id="truck135" depart="127.00" from="-E91" to="-E95" type="truck_truck"/>
    <trip id="truck136" depart="127.00" from="-E45" to="E24" type="truck_truck"/>
    <trip id="truck137" depart="127.00" from="-E57" to="-E2" type="truck_truck"/>
    <trip id="truck138" depart="127.00" from="-E98" to="E98" type="truck_truck"/>
    <trip id="truck139" depart="128.00" from="-E70" to="E74" type="truck_truck"/>
    <trip id="truck140" depart="130.00" from="-E62" to="E81" type="truck_truck"/>
    <trip id="truck141" depart="130.00" from="E66" to="-E59" type="truck_truck"/>
    <trip id="truck142" depart="130.00" from="E80" to="-E11" type="truck_truck"/>
    <trip id="truck143" depart="131.00" from="E0" to="E83" type="truck_truck"/>
    <trip id="truck144" depart="132.00" from="-E19" to="E37" type="truck_truck"/>
    <trip id="truck145" depart="134.00" from="E9" to="E44" type="truck_truck"/>
    <trip id="truck146" depart="135.00" from="E32" to="E31" type="truck_truck"/>
    <trip id="truck147" depart="136.00" from="-E63" to="-E84" type="truck_truck"/>
    <trip id="truck148" depart="137.00" from="-E38" to="-E60" type="truck_truck"/>
    <trip id="truck149" depart="138.00" from="E100" to="E68" type="truck_truck"/>
    <trip id="truck150" depart="138.00" from="E80" to="-E83" type="truck_truck"/>
    <trip id="truck151" depart="138.00" from="E62" to="E14" type="truck_truck"/>
    <trip id="truck152" depart="139.00" from="E91" to="E90" type="truck_truck"/>
    <trip id="truck153" depart="139.00" from="E14" to="E72" type="truck_truck"/>
    <trip id="truck154" depart="140.00" from="-E24" to="-E10" type="truck_truck"/>
    <trip id="truck155" depart="140.00" from="-E27" to="-E25" type="truck_truck"/>
    <trip id="truck156" depart="141.00" from="E23" to="-E60" type="truck_truck"/>
    <trip id="truck157" depart="141.00" from="-E69" to="E55" type="truck_truck"/>
    <trip id="truck158" depart="142.00" from="-E74" to="E19" type="truck_truck"/>
    <trip id="truck159" depart="142.00" from="-E106" to="-E21" type="truck_truck"/>
    <trip id="truck160" depart="145.00" from="-E37" to="E1" type="truck_truck"/>
    <trip id="truck161" depart="145.00" from="E5" to="-E49" type="truck_truck"/>
    <trip id="truck162" depart="145.00" from="E46" to="-E27" type="truck_truck"/>
    <trip id="truck163" depart="147.00" from="-E85" to="E93" type="truck_truck"/>
    <trip id="truck164" depart="147.00" from="E59" to="-E23" type="truck_truck"/>
    <trip id="truck165" depart="148.00" from="E91" to="-E31" type="truck_truck"/>
    <trip id="truck166" depart="149.00" from="E82" to="E75" type="truck_truck"/>
    <trip id="truck167" depart="149.00" from="E36" to="E22" type="truck_truck"/>
    <trip id="truck168" depart="150.00" from="E95" to="E9" type="truck_truck"/>
    <trip id="truck169" depart="152.00" from="E28" to="-E68" type="truck_truck"/>
    <trip id="truck170" depart="154.00" from="E0" to="-E98" type="truck_truck"/>
    <trip id="truck171" depart="154.00" from="-E33" to="E24" type="truck_truck"/>
    <trip id="truck172" depart="154.00" from="E80" to="-E76" type="truck_truck"/>
    <trip id="truck173" depart="156.00" from="-E59" to="-E86" type="truck_truck"/>
    <trip id="truck174" depart="157.00" from="E33" to="E66" type="truck_truck"/>
    <trip id="truck175" depart="158.00" from="-E77" to="-E102" type="truck_truck"/>
    <trip id="truck176" depart="161.00" from="E49" to="E6" type="truck_truck"/>
    <trip id="truck177" depart="164.00" from="E43" to="E43" type="truck_truck"/>
    <trip id="truck178" depart="164.00" from="-E105" to="E100" type="truck_truck"/>
    <trip id="truck179" depart="164.00" from="-E93" to="-E60" type="truck_truck"/>
    <trip id="truck180" depart="164.00" from="E54" to="-E84" type="truck_truck"/>
    <trip id="truck181" depart="165.00" from="E31" to="-E84" type="truck_truck"/>
    <trip id="truck182" depart="165.00" from="E55" to="-E2" type="truck_truck"/>
    <trip id="truck183" depart="167.00" from="E64" to="-E24" type="truck_truck"/>
    <trip id="truck184" depart="168.00" from="-E100" to="E49" type="truck_truck"/>
    <trip id="truck185" depart="168.00" from="E37" to="E7" type="truck_truck"/>
    <trip id="truck186" depart="168.00" from="E31" to="E86" type="truck_truck"/>
    <trip id="truck187" depart="170.00" from="E98" to="E41" type="truck_truck"/>
    <trip id="truck188" depart="170.00" from="E5" to="-E24" type="truck_truck"/>
    <trip id="truck189" depart="170.00" from="-E4" to="-E98" type="truck_truck"/>
    <trip id="truck190" depart="172.00" from="-E46" to="E103" type="truck_truck"/>
    <trip id="truck191" depart="175.00" from="-E87" to="E60" type="truck_truck"/>
    <trip id="truck192" depart="175.00" from="E106" to="E54" type="truck_truck"/>
    <trip id="truck193" depart="176.00" from="-E104" to="E69" type="truck_truck"/>
    <trip id="truck194" depart="177.00" from="E72" to="E69" type="truck_truck"/>
    <trip id="truck195" depart="177.00" from="E82" to="-E10" type="truck_truck"/>
    <trip id="truck196" depart="177.00" from="E41" to="-E36" type="truck_truck"/>
    <trip id="truck197" depart="178.00" from="-E95" to="E52" type="truck_truck"/>
    <trip id="truck198" depart="178.00" from="E26" to="-E30" type="truck_truck"/>
    <trip id="truck199" depart="179.00" from="E20" to="-E49" type="truck_truck"/>
    <trip id="truck200" depart="179.00" from="E7" to="-E93" type="truck_truck"/>
    <trip id="truck201" depart="180.00" from="E33" to="-E71" type="truck_truck"/>
    <trip id="truck202" depart="180.00" from="E43" to="E28" type="truck_truck"/>
    <trip id="truck203" depart="182.00" from="E45" to="E63" type="truck_truck"/>
    <trip id="truck204" depart="182.00" from="E65" to="-E24" type="truck_truck"/>
    <trip id="truck205" depart="182.00" from="E87" to="E107" type="truck_truck"/>
    <trip id="truck206" depart="183.00" from="-E106" to="E13" type="truck_truck"/>
    <trip id="truck207" depart="183.00" from="E80" to="E24" type="truck_truck"/>
    <trip id="truck208" depart="185.00" from="-E24" to="-E18" type="truck_truck"/>
    <trip id="truck209" depart="185.00" from="-E13" to="E40" type="truck_truck"/>
    <trip id="truck210" depart="186.00" from="E35" to="E39" type="truck_truck"/>
    <trip id="truck211" depart="187.00" from="E69" to="-E100" type="truck_truck"/>
    <trip id="truck212" depart="187.00" from="E90" to="-E77" type="truck_truck"/>
    <trip id="truck213" depart="188.00" from="E107" to="E61" type="truck_truck"/>
    <trip id="truck214" depart="188.00" from="-E3" to="-E36" type="truck_truck"/>
    <trip id="truck215" depart="188.00" from="E76" to="-E103" type="truck_truck"/>
    <trip id="truck216" depart="190.00" from="E3" to="E38" type="truck_truck"/>
    <trip id="truck217" depart="190.00" from="E38" to="-E14" type="truck_truck"/>
    <trip id="truck218" depart="191.00" from="E89" to="E77" type="truck_truck"/>
    <trip id="truck219" depart="192.00" from="-E31" to="E55" type="truck_truck"/>
    <trip id="truck220" depart="192.00" from="E14" to="E28" type="truck_truck"/>
    <trip id="truck221" depart="193.00" from="-E104" to="-E43" type="truck_truck"/>
    <trip id="truck222" depart="193.00" from="-E70" to="-E76" type="truck_truck"/>
    <trip id="truck223" depart="193.00" from="E90" to="-E23" type="truck_truck"/>
    <trip id="truck224" depart="194.00" from="E11" to="E8" type="truck_truck"/>
    <trip id="truck225" depart="197.00" from="-E37" to="-E83" type="truck_truck"/>
    <trip id="truck226" depart="198.00" from="-E91" to="-E83" type="truck_truck"/>
    <trip id="truck227" depart="201.00" from="-E72" to="E15" type="truck_truck"/>
    <trip id="truck228" depart="202.00" from="-E100" to="E35" type="truck_truck"/>
    <trip id="truck229" depart="203.00" from="E20" to="E43" type="truck_truck"/>
    <trip id="truck230" depart="203.00" from="E7" to="-E95" type="truck_truck"/>
    <trip id="truck231" depart="204.00" from="-E20" to="E69" type="truck_truck"/>
    <trip id="truck232" depart="205.00" from="E66" to="-E99" type="truck_truck"/>
    <trip id="truck233" depart="208.00" from="E66" to="E41" type="truck_truck"/>
    <trip id="truck234" depart="208.00" from="-E49" to="-E37" type="truck_truck"/>
    <trip id="truck235" depart="209.00" from="-E43" to="E72" type="truck_truck"/>
    <trip id="truck236" depart="209.00" from="-E5" to="-E76" type="truck_truck"/>
    <trip id="truck237" depart="210.00" from="E71" to="-E26" type="truck_truck"/>
    <trip id="truck238" depart="210.00" from="-E24" to="E95" type="truck_truck"/>
    <trip id="truck239" depart="213.00" from="E28" to="E8" type="truck_truck"/>
    <trip id="truck240" depart="214.00" from="-E68" to="-E37" type="truck_truck"/>
    <trip id="truck241" depart="214.00" from="-E104" to="E7" type="truck_truck"/>
    <trip id="truck242" depart="215.00" from="E105" to="E98" type="truck_truck"/>
    <trip id="truck243" depart="215.00" from="-E7" to="-E0" type="truck_truck"/>
    <trip id="truck244" depart="217.00" from="-E40" to="-E107" type="truck_truck"/>
    <trip id="truck245" depart="218.00" from="-E60" to="E15" type="truck_truck"/>
    <trip id="truck246" depart="219.00" from="-E72" to="E93" type="truck_truck"/>
    <trip id="truck247" depart="223.00" from="E102" to="-E103" type="truck_truck"/>
    <trip id="truck248" depart="224.00" from="E62" to="E67" type="truck_truck"/>
    <trip id="truck249" depart="224.00" from="E33" to="E22" type="truck_truck"/>
    <trip id="truck250" depart="224.00" from="-E69" to="E40" type="truck_truck"/>
    <trip id="truck251" depart="225.00" from="E45" to="E107" type="truck_truck"/>
    <trip id="truck252" depart="225.00" from="-E98" to="-E1" type="truck_truck"/>
    <trip id="truck253" depart="227.00" from="-E38" to="E85" type="truck_truck"/>
    <trip id="truck254" depart="228.00" from="-E57" to="-E103" type="truck_truck"/>
    <trip id="truck255" depart="230.00" from="-E67" to="-E13" type="truck_truck"/>
    <trip id="truck256" depart="231.00" from="E9" to="-E0" type="truck_truck"/>
    <trip id="truck257" depart="232.00" from="-E90" to="-E7" type="truck_truck"/>
    <trip id="truck258" depart="233.00" from="E79" to="-E79" type="truck_truck"/>
    <trip id="truck259" depart="234.00" from="-E82" to="-E23" type="truck_truck"/>
    <trip id="truck260" depart="236.00" from="E7" to="-E105" type="truck_truck"/>
    <trip id="truck261" depart="236.00" from="-E98" to="-E91" type="truck_truck"/>
    <trip id="truck262" depart="238.00" from="-E26" to="E63" type="truck_truck"/>
    <trip id="truck263" depart="238.00" from="-E31" to="-E35" type="truck_truck"/>
    <trip id="truck264" depart="240.00" from="E1" to="E97" type="truck_truck"/>
    <trip id="truck265" depart="240.00" from="-E73" to="E26" type="truck_truck"/>
    <trip id="truck266" depart="241.00" from="E27" to="-E30" type="truck_truck"/>
    <trip id="truck267" depart="242.00" from="-E90" to="E46" type="truck_truck"/>
    <trip id="truck268" depart="244.00" from="-E72" to="-E45" type="truck_truck"/>
    <trip id="truck269" depart="244.00" from="-E14" to="-E35" type="truck_truck"/>
    <trip id="truck270" depart="245.00" from="E57" to="E84" type="truck_truck"/>
    <trip id="truck271" depart="246.00" from="E59" to="-E93" type="truck_truck"/>
    <trip id="truck272" depart="246.00" from="-E72" to="E65" type="truck_truck"/>
    <trip id="truck273" depart="246.00" from="E52" to="-E100" type="truck_truck"/>
    <trip id="truck274" depart="248.00" from="E0" to="E75" type="truck_truck"/>
    <trip id="truck275" depart="249.00" from="-E36" to="E87" type="truck_truck"/>
    <trip id="truck276" depart="251.00" from="-E62" to="-E38" type="truck_truck"/>
    <trip id="truck277" depart="253.00" from="-E33" to="E61" type="truck_truck"/>
    <trip id="truck278" depart="253.00" from="E100" to="-E44" type="truck_truck"/>
    <trip id="truck279" depart="253.00" from="E101" to="-E40" type="truck_truck"/>
    <trip id="truck280" depart="255.00" from="-E25" to="E99" type="truck_truck"/>
    <trip id="truck281" depart="255.00" from="E98" to="E104" type="truck_truck"/>
    <trip id="truck282" depart="255.00" from="-E56" to="E15" type="truck_truck"/>
    <trip id="truck283" depart="256.00" from="E64" to="E2" type="truck_truck"/>
    <trip id="truck284" depart="258.00" from="E79" to="-E93" type="truck_truck"/>
    <trip id="truck285" depart="260.00" from="-E81" to="E75" type="truck_truck"/>
    <trip id="truck286" depart="260.00" from="-E76" to="E60" type="truck_truck"/>
    <trip id="truck287" depart="261.00" from="-E0" to="E36" type="truck_truck"/>
    <trip id="truck288" depart="261.00" from="E29" to="E87" type="truck_truck"/>
    <trip id="truck289" depart="263.00" from="-E12" to="-E77" type="truck_truck"/>
    <trip id="truck290" depart="263.00" from="-E87" to="E18" type="truck_truck"/>
    <trip id="truck291" depart="264.00" from="-E3" to="-E49" type="truck_truck"/>
    <trip id="truck292" depart="264.00" from="-E38" to="-E5" type="truck_truck"/>
    <trip id="truck293" depart="268.00" from="E57" to="-E53" type="truck_truck"/>
    <trip id="truck294" depart="269.00" from="E53" to="E95" type="truck_truck"/>
    <trip id="truck295" depart="274.00" from="E83" to="E93" type="truck_truck"/>
    <trip id="truck296" depart="277.00" from="E61" to="-E79" type="truck_truck"/>
    <trip id="truck297" depart="278.00" from="-E104" to="-E46" type="truck_truck"/>
    <trip id="truck298" depart="278.00" from="-E25" to="E35" type="truck_truck"/>
    <trip id="truck299" depart="280.00" from="-E97" to="E25" type="truck_truck"/>
    <trip id="truck300" depart="282.00" from="E72" to="-E1" type="truck_truck"/>
    <trip id="truck301" depart="282.00" from="-E39" to="E21" type="truck_truck"/>
    <trip id="truck302" depart="282.00" from="-E99" to="E89" type="truck_truck"/>
    <trip id="truck303" depart="282.00" from="-E15" to="-E27" type="truck_truck"/>
    <trip id="truck304" depart="282.00" from="-E68" to="E85" type="truck_truck"/>
    <trip id="truck305" depart="282.00" from="E56" to="-E54" type="truck_truck"/>
    <trip id="truck306" depart="285.00" from="-E10" to="-E60" type="truck_truck"/>
    <trip id="truck307" depart="288.00" from="-E7" to="E80" type="truck_truck"/>
    <trip id="truck308" depart="290.00" from="E23" to="E87" type="truck_truck"/>
    <trip id="truck309" depart="291.00" from="E70" to="E76" type="truck_truck"/>
    <trip id="truck310" depart="292.00" from="E76" to="E74" type="truck_truck"/>
    <trip id="truck311" depart="292.00" from="-E79" to="-E56" type="truck_truck"/>
    <trip id="truck312" depart="293.00" from="-E64" to="-E97" type="truck_truck"/>
    <trip id="truck313" depart="294.00" from="-E19" to="E0" type="truck_truck"/>
    <trip id="truck314" depart="295.00" from="-E40" to="E67" type="truck_truck"/>
    <trip id="truck315" depart="296.00" from="-E71" to="-E76" type="truck_truck"/>
    <trip id="truck316" depart="298.00" from="E26" to="E82" type="truck_truck"/>
    <trip id="truck317" depart="298.00" from="E66" to="E69" type="truck_truck"/>
    <trip id="truck318" depart="298.00" from="-E9" to="E15" type="truck_truck"/>
    <trip id="truck319" depart="299.00" from="-E41" to="E32" type="truck_truck"/>
    <trip id="truck320" depart="300.00" from="-E55" to="E102" type="truck_truck"/>
    <trip id="truck321" depart="302.00" from="E105" to="-E106" type="truck_truck"/>
    <trip id="truck322" depart="302.00" from="-E4" to="-E82" type="truck_truck"/>
    <trip id="truck323" depart="302.00" from="E29" to="E64" type="truck_truck"/>
    <trip id="truck324" depart="302.00" from="E60" to="E10" type="truck_truck"/>
    <trip id="truck325" depart="303.00" from="E104" to="-E75" type="truck_truck"/>
    <trip id="truck326" depart="304.00" from="-E45" to="-E18" type="truck_truck"/>
    <trip id="truck327" depart="305.00" from="-E66" to="-E35" type="truck_truck"/>
    <trip id="truck328" depart="306.00" from="-E32" to="-E35" type="truck_truck"/>
    <trip id="truck329" depart="306.00" from="-E24" to="E81" type="truck_truck"/>
    <trip id="truck330" depart="306.00" from="-E66" to="E76" type="truck_truck"/>
    <trip id="truck331" depart="307.00" from="-E35" to="-E60" type="truck_truck"/>
    <trip id="truck332" depart="307.00" from="E19" to="-E79" type="truck_truck"/>
    <trip id="truck333" depart="310.00" from="-E84" to="E29" type="truck_truck"/>
    <trip id="truck334" depart="311.00" from="-E80" to="E41" type="truck_truck"/>
    <trip id="truck335" depart="312.00" from="-E76" to="-E44" type="truck_truck"/>
    <trip id="truck336" depart="312.00" from="E105" to="-E59" type="truck_truck"/>
    <trip id="truck337" depart="312.00" from="E32" to="E55" type="truck_truck"/>
    <trip id="truck338" depart="315.00" from="-E54" to="-E59" type="truck_truck"/>
    <trip id="truck339" depart="316.00" from="-E9" to="E101" type="truck_truck"/>
    <trip id="truck340" depart="317.00" from="-E56" to="E70" type="truck_truck"/>
    <trip id="truck341" depart="317.00" from="-E34" to="E58" type="truck_truck"/>
    <trip id="truck342" depart="318.00" from="-E82" to="E54" type="truck_truck"/>
    <trip id="truck343" depart="319.00" from="E57" to="E98" type="truck_truck"/>
    <trip id="truck344" depart="319.00" from="E7" to="-E32" type="truck_truck"/>
    <trip id="truck345" depart="320.00" from="E59" to="-E102" type="truck_truck"/>
    <trip id="truck346" depart="320.00" from="-E33" to="E28" type="truck_truck"/>
    <trip id="truck347" depart="321.00" from="E77" to="E100" type="truck_truck"/>
    <trip id="truck348" depart="321.00" from="-E53" to="E4" type="truck_truck"/>
    <trip id="truck349" depart="321.00" from="E89" to="-E20" type="truck_truck"/>
    <trip id="truck350" depart="322.00" from="E105" to="E54" type="truck_truck"/>
    <trip id="truck351" depart="323.00" from="E60" to="-E99" type="truck_truck"/>
    <trip id="truck352" depart="325.00" from="-E19" to="E11" type="truck_truck"/>
    <trip id="truck353" depart="326.00" from="-E105" to="-E93" type="truck_truck"/>
    <trip id="truck354" depart="327.00" from="E87" to="-E0" type="truck_truck"/>
    <trip id="truck355" depart="327.00" from="-E4" to="E15" type="truck_truck"/>
    <trip id="truck356" depart="327.00" from="-E71" to="E99" type="truck_truck"/>
    <trip id="truck357" depart="328.00" from="E6" to="E27" type="truck_truck"/>
    <trip id="truck358" depart="328.00" from="E56" to="-E9" type="truck_truck"/>
    <trip id="truck359" depart="328.00" from="E107" to="-E24" type="truck_truck"/>