<?xml version="1.0" encoding="UTF-8"?>

<!-- generated on 2024-04-27 16:43:01.956268 by osmWebWizard.py v1_19_0+0000-baa66a0f364
<configuration>
    <net-file value="C:\Users\Acer\Sumo\2024-04-27-16-42-53\osm.net.xml.gz"/>
    <output-trip-file value="C:\Users\Acer\Sumo\2024-04-27-16-42-53\osm.passenger.trips.xml"/>
    <route-file value="C:\Users\Acer\Sumo\2024-04-27-16-42-53\osm.passenger.rou.xml"/>
    <prefix value="veh"/>
    <trip-attributes value="departLane=&quot;best&quot;"/>
    <fringe-start-attributes value="departSpeed=&quot;max&quot;"/>
    <vehicle-class value="passenger"/>
    <lanes value="True"/>
    <fringe-factor value="5"/>
    <allow-fringe.min-length value="1000.0"/>
    <via-edge-types value="highway.motorway,highway.motorway_link,highway.trunk_link,highway.primary_link,highway.secondary_link,highway.tertiary_link"/>
    <min-distance value="300.0"/>
    <min-distance.fringe value="10.0"/>
    <remove-loops value="True"/>
    <validate value="True"/>
    <insertion-density value="100.0"/>
</configuration>
-->

<!-- generated on 2024-04-27 16:43:01 by Eclipse SUMO duarouter Version 1.19.0
<configuration xmlns:xsi="http://www.w3.org/2001/XMLSchema-instance" xsi:noNamespaceSchemaLocation="http://sumo.dlr.de/xsd/duarouterConfiguration.xsd">

    <input>
        <net-file value="C:\Users\Acer\Sumo\2024-04-27-16-42-53\osm.net.xml.gz"/>
        <route-files value="C:\Users\Acer\Sumo\2024-04-27-16-42-53\osm.passenger.trips.xml"/>
    </input>

    <output>
        <output-file value="C:\Users\Acer\Sumo\2024-04-27-16-42-53\osm.passenger.trips.xml.tmp"/>
        <alternatives-output value="NUL"/>
        <write-trips value="true"/>
    </output>

    <processing>
        <remove-loops value="true"/>
    </processing>

    <time>
        <begin value="0.0"/>
        <end value="3600.0"/>
    </time>

    <report>
        <no-warnings value="true"/>
        <ignore-errors value="true"/>
        <no-step-log value="true"/>
    </report>

</configuration>
-->

<routes xmlns:xsi="http://www.w3.org/2001/XMLSchema-instance" xsi:noNamespaceSchemaLocation="http://sumo.dlr.de/xsd/routes_file.xsd">
    <vType id="veh_passenger" vClass="passenger"/>
    <trip id="veh0" type="veh_passenger" depart="0.00" departLane="best" from="-373726396#3" to="-32581670#3"/>
    <trip id="veh1" type="veh_passenger" depart="1.61" departLane="best" from="-32584870#11" to="-32581670#1"/>
    <trip id="veh2" type="veh_passenger" depart="3.22" departLane="best" departSpeed="max" from="32581500#0" to="235765957#4"/>
    <trip id="veh3" type="veh_passenger" depart="4.84" departLane="best" from="-32587317#2" to="304959969#1"/>
    <trip id="veh4" type="veh_passenger" depart="6.45" departLane="best" departSpeed="max" from="373726397#0" to="-235765783#0"/>
    <trip id="veh5" type="veh_passenger" depart="8.06" departLane="best" departSpeed="max" from="373726397#0" to="32583651#3"/>
    <trip id="veh6" type="veh_passenger" depart="9.67" departLane="best" from="508078678" to="-373726397#0"/>
    <trip id="veh7" type="veh_passenger" depart="11.29" departLane="best" from="-32578286#5" to="-256404544#9"/>
    <trip id="veh8" type="veh_passenger" depart="12.90" departLane="best" from="373726400#1" to="32578286#5"/>
    <trip id="veh9" type="veh_passenger" depart="14.51" departLane="best" departSpeed="max" from="373726397#0" to="32587317#0"/>
    <trip id="veh10" type="veh_passenger" depart="16.12" departLane="best" from="-373726397#7" to="32578286#9"/>
    <trip id="veh11" type="veh_passenger" depart="17.73" departLane="best" from="373726400#8" to="-256404544#5"/>
    <trip id="veh12" type="veh_passenger" depart="19.35" departLane="best" departSpeed="max" from="32582260#0" to="-235765957#5"/>
    <trip id="veh13" type="veh_passenger" depart="20.96" departLane="best" from="-304959969#1" to="-32582260#1"/>
    <trip id="veh14" type="veh_passenger" depart="22.57" departLane="best" departSpeed="max" from="-32578286#9" to="-32584870#7"/>
    <trip id="veh15" type="veh_passenger" depart="24.18" departLane="best" from="-408221529#0" to="-32581670#0"/>
    <trip id="veh16" type="veh_passenger" depart="25.79" departLane="best" departSpeed="max" from="-373726395#6" to="462954285#3"/>
    <trip id="veh17" type="veh_passenger" depart="27.41" departLane="best" departSpeed="max" from="32581500#0" to="32578286#8"/>
    <trip id="veh18" type="veh_passenger" depart="29.02" departLane="best" from="-32581500#7" to="-373726400#1"/>
    <trip id="veh19" type="veh_passenger" depart="30.63" departLane="best" departSpeed="max" from="373726400#0" to="373726395#6"/>
    <trip id="veh20" type="veh_passenger" depart="32.24" departLane="best" from="373726390#0" to="-235765783#8"/>
    <trip id="veh21" type="veh_passenger" depart="33.86" departLane="best" from="-32584870#4" to="-462954286#1"/>
    <trip id="veh22" type="veh_passenger" depart="35.47" departLane="best" from="373727572#2" to="-373726395#3"/>
    <trip id="veh23" type="veh_passenger" depart="37.08" departLane="best" departSpeed="max" from="32581500#0" to="-408197643#0"/>
    <trip id="veh24" type="veh_passenger" depart="38.69" departLane="best" from="-408251037#0" to="462954286#4"/>
    <trip id="veh25" type="veh_passenger" depart="40.30" departLane="best" from="32578286#1" to="-408197643#2"/>
    <trip id="veh26" type="veh_passenger" depart="41.92" departLane="best" departSpeed="max" from="-32578286#9" to="32581226#1"/>
    <trip id="veh27" type="veh_passenger" depart="43.53" departLane="best" from="373726396#1" to="-408221530#1"/>
    <trip id="veh28" type="veh_passenger" depart="45.14" departLane="best" from="-256404544#3" to="-373726400#2"/>
    <trip id="veh29" type="veh_passenger" depart="46.75" departLane="best" departSpeed="max" from="508078680#0" to="373726400#7"/>
    <trip id="veh30" type="veh_passenger" depart="48.36" departLane="best" departSpeed="max" from="32581670#0" to="235765957#0"/>
    <trip id="veh31" type="veh_passenger" depart="49.98" departLane="best" departSpeed="max" from="-373726395#6" to="32581226#7"/>
    <trip id="veh32" type="veh_passenger" depart="51.59" departLane="best" from="-523162209#0" to="462954287#1"/>
    <trip id="veh33" type="veh_passenger" depart="53.20" departLane="best" from="373727572#2" to="-32584870#1"/>
    <trip id="veh34" type="veh_passenger" depart="54.81" departLane="best" from="235765783#8" to="-32581500#0"/>
    <trip id="veh35" type="veh_passenger" depart="56.43" departLane="best" from="-408221530#1" to="373726400#9"/>
    <trip id="veh36" type="veh_passenger" depart="58.04" departLane="best" departSpeed="max" from="32580739#0" to="-32581226#0"/>
    <trip id="veh37" type="veh_passenger" depart="59.65" departLane="best" from="373726395#0" to="235765783#7"/>
    <trip id="veh38" type="veh_passenger" depart="61.26" departLane="best" from="-235765782#0" to="-373726396#2"/>
    <trip id="veh39" type="veh_passenger" depart="62.87" departLane="best" from="235765783#7" to="-462954284#4"/>
    <trip id="veh40" type="veh_passenger" depart="64.49" departLane="best" from="-32581500#14" to="373726397#8"/>
    <trip id="veh41" type="veh_passenger" depart="66.10" departLane="best" departSpeed="max" from="-373726397#14" to="-235765959#0"/>
    <trip id="veh42" type="veh_passenger" depart="67.71" departLane="best" from="-32581500#14" to="462954286#3"/>
    <trip id="veh43" type="veh_passenger" depart="69.32" departLane="best" from="-32578286#2" to="-508078680#1"/>
    <trip id="veh44" type="veh_passenger" depart="70.94" departLane="best" from="373726392#0" to="32578286#7"/>
    <trip id="veh45" type="veh_passenger" depart="72.55" departLane="best" departSpeed="max" from="235765783#0" to="235765959#2"/>
    <trip id="veh46" type="veh_passenger" depart="74.16" departLane="best" from="-462954287#1" to="-32581670#0"/>
    <trip id="veh47" type="veh_passenger" depart="75.77" departLane="best" departSpeed="max" from="256404544#0" to="32587317#0"/>
    <trip id="veh48" type="veh_passenger" depart="77.38" departLane="best" departSpeed="max" from="-32584870#12" to="-373726395#1"/>
    <trip id="veh49" type="veh_passenger" depart="79.00" departLane="best" from="525107166" to="32581500#12"/>
    <trip id="veh50" type="veh_passenger" depart="80.61" departLane="best" from="508078680#3" to="-235765783#1"/>
    <trip id="veh51" type="veh_passenger" depart="82.22" departLane="best" from="-32581226#3" to="32581671#0"/>
    <trip id="veh52" type="veh_passenger" depart="83.83" departLane="best" from="373726400#1" to="304959969#0"/>
    <trip id="veh53" type="veh_passenger" depart="85.44" departLane="best" from="373726390#0" to="-32581670#2"/>
    <trip id="veh54" type="veh_passenger" depart="87.06" departLane="best" from="373726390#0" to="408221529#2"/>
    <trip id="veh55" type="veh_passenger" depart="88.67" departLane="best" from="-373726400#7" to="-256404544#0"/>
    <trip id="veh56" type="veh_passenger" depart="90.28" departLane="best" from="-32584870#7" to="-32580739#0"/>
    <trip id="veh57" type="veh_passenger" depart="91.89" departLane="best" from="-235765782#1" to="373726396#3"/>
    <trip id="veh58" type="veh_passenger" depart="93.51" departLane="best" departSpeed="max" from="373726397#0" to="-32581500#11"/>
    <trip id="veh59" type="veh_passenger" depart="95.12" departLane="best" departSpeed="max" from="32584870#0" to="32581500#7"/>
    <trip id="veh60" type="veh_passenger" depart="96.73" departLane="best" from="523162209#0" to="304959969#0"/>
    <trip id="veh61" type="veh_passenger" depart="98.34" departLane="best" from="-462954285#2" to="-373726397#0"/>
    <trip id="veh62" type="veh_passenger" depart="99.95" departLane="best" from="-373726395#1" to="-462954284#2"/>
    <trip id="veh63" type="veh_passenger" depart="101.57" departLane="best" departSpeed="max" from="-511517517" to="373726400#8"/>
    <trip id="veh64" type="veh_passenger" depart="103.18" departLane="best" from="256404544#2" to="-235765959#0"/>
    <trip id="veh65" type="veh_passenger" depart="104.79" departLane="best" from="-608787986#1" to="373726398#0"/>
    <trip id="veh66" type="veh_passenger" depart="106.40" departLane="best" from="235765783#1" to="-32581670#0"/>
    <trip id="veh67" type="veh_passenger" depart="108.01" departLane="best" from="-462954285#1" to="-235765959#1"/>
    <trip id="veh68" type="veh_passenger" depart="109.63" departLane="best" from="-408221530#0" to="-523162209#0"/>
    <trip id="veh69" type="veh_passenger" depart="111.24" departLane="best" from="-523162209#1" to="408221530#1"/>
    <trip id="veh70" type="veh_passenger" depart="112.85" departLane="best" from="256404544#4" to="32584870#3"/>
    <trip id="veh71" type="veh_passenger" depart="114.46" departLane="best" departSpeed="max" from="-32581500#16" to="-373726392#0"/>
    <trip id="veh72" type="veh_passenger" depart="116.08" departLane="best" departSpeed="max" from="256404544#0" to="-373726392#1"/>
    <trip id="veh73" type="veh_passenger" depart="117.69" departLane="best" from="235765783#9" to="373726400#4"/>
    <trip id="veh74" type="veh_passenger" depart="119.30" departLane="best" from="32581500#2" to="508078679#1"/>
    <trip id="veh75" type="veh_passenger" depart="120.91" departLane="best" from="-304959969#1" to="-32581500#0"/>
    <trip id="veh76" type="veh_passenger" depart="122.52" departLane="best" departSpeed="max" from="408197643#0" to="-32583651#0"/>
    <trip id="veh77" type="veh_passenger" depart="124.14" departLane="best" from="32578286#6" to="32578286#9"/>
    <trip id="veh78" type="veh_passenger" depart="125.75" departLane="best" from="-462954287#0" to="256404544#8"/>
    <trip id="veh79" type="veh_passenger" depart="127.36" departLane="best" departSpeed="max" from="235765959#0" to="-462954285#2"/>
    <trip id="veh80" type="veh_passenger" depart="128.97" departLane="best" departSpeed="max" from="-32584870#12" to="-32584870#2"/>
    <trip id="veh81" type="veh_passenger" depart="130.58" departLane="best" from="373726393" to="-408197643#0"/>
    <trip id="veh82" type="veh_passenger" depart="132.20" departLane="best" from="-256404544#7" to="-462954286#3"/>
    <trip id="veh83" type="veh_passenger" depart="133.81" departLane="best" from="-256404544#8" to="-32581670#0"/>
    <trip id="veh84" type="veh_passenger" depart="135.42" departLane="best" departSpeed="max" from="-373726395#6" to="-462954285#1"/>
    <trip id="veh85" type="veh_passenger" depart="137.03" departLane="best" from="-408221529#0" to="-32581226#1"/>
    <trip id="veh86" type="veh_passenger" depart="138.65" departLane="best" from="373726397#9" to="32584870#11"/>
    <trip id="veh87" type="veh_passenger" depart="140.26" departLane="best" from="32580739#1" to="-523162209#1"/>
    <trip id="veh88" type="veh_passenger" depart="141.87" departLane="best" from="-32581500#13" to="462954285#4"/>
    <trip id="veh89" type="veh_passenger" depart="143.48" departLane="best" from="-32581226#9" to="-32578286#1"/>
    <trip id="veh90" type="veh_passenger" depart="145.09" departLane="best" departSpeed="max" from="-32578286#9" to="235765959#3"/>
    <trip id="veh91" type="veh_passenger" depart="146.71" departLane="best" from="-373726396#2" to="32578286#6"/>
    <trip id="veh92" type="veh_passenger" depart="148.32" departLane="best" from="235765783#2" to="408221529#2"/>
    <trip id="veh93" type="veh_passenger" depart="149.93" departLane="best" departSpeed="max" from="373726400#0" to="-256404544#7"/>
    <trip id="veh94" type="veh_passenger" depart="151.54" departLane="best" from="-235765782#1" to="373726395#6"/>
    <trip id="veh95" type="veh_passenger" depart="153.16" departLane="best" from="-508078679#0" to="-235765783#0"/>
    <trip id="veh96" type="veh_passenger" depart="154.77" departLane="best" from="-256404544#9" to="373727573#2"/>
    <trip id="veh97" type="veh_passenger" depart="156.38" departLane="best" from="408221529#1" to="235765957#4"/>
    <trip id="veh98" type="veh_passenger" depart="157.99" departLane="best" departSpeed="max" from="-32581500#16" to="32578286#7"/>
    <trip id="veh99" type="veh_passenger" depart="159.60" departLane="best" departSpeed="max" from="-373726397#14" to="-408197643#3"/>
    <trip id="veh100" type="veh_passenger" depart="161.22" departLane="best" from="408197643#3" to="-32581670#0"/>
    <trip id="veh101" type="veh_passenger" depart="162.83" departLane="best" from="-373726395#1" to="304959969#2"/>
    <trip id="veh102" type="veh_passenger" depart="164.44" departLane="best" from="-373726395#1" to="373727573#3"/>
    <trip id="veh103" type="veh_passenger" depart="166.05" departLane="best" departSpeed="max" from="-32581500#16" to="-462954285#0"/>
    <trip id="veh104" type="veh_passenger" depart="167.66" departLane="best" departSpeed="max" from="373726397#0" to="373727573#1"/>
    <trip id="veh105" type="veh_passenger" depart="169.28" departLane="best" departSpeed="max" from="-373726398#1" to="462954285#0"/>
    <trip id="veh106" type="veh_passenger" depart="170.89" departLane="best" departSpeed="max" from="373726397#0" to="373726400#9"/>
    <trip id="veh107" type="veh_passenger" depart="172.50" departLane="best" departSpeed="max" from="373726397#0" to="32584870#11"/>
    <trip id="veh108" type="veh_passenger" depart="174.11" departLane="best" departSpeed="max" from="373727572#0" to="373726400#6"/>
    <trip id="veh109" type="veh_passenger" depart="175.73" departLane="best" from="-32587317#3" to="373726397#14"/>
    <trip id="veh110" type="veh_passenger" depart="177.34" departLane="best" from="-373726396#3" to="-32581671#1"/>
    <trip id="veh111" type="veh_passenger" depart="178.95" departLane="best" departSpeed="max" from="508078680#0" to="32584870#8"/>
    <trip id="veh112" type="veh_passenger" depart="180.56" departLane="best" from="508078680#3" to="235765957#0"/>
    <trip id="veh113" type="veh_passenger" depart="182.17" departLane="best" from="462954285#4" to="-32578286#1"/>
    <trip id="veh114" type="veh_passenger" depart="183.79" departLane="best" departSpeed="max" from="508078680#0" to="-32581500#0"/>
    <trip id="veh115" type="veh_passenger" depart="185.40" departLane="best" from="-508078679#1" to="32584870#10"/>
    <trip id="veh116" type="veh_passenger" depart="187.01" departLane="best" departSpeed="max" from="-32578286#9" to="-462954284#2"/>
    <trip id="veh117" type="veh_passenger" depart="188.62" departLane="best" departSpeed="max" from="32584870#0" to="373726395#3"/>
    <trip id="veh118" type="veh_passenger" depart="190.23" departLane="best" departSpeed="max" from="32580739#0" to="235765782#0"/>
    <trip id="veh119" type="veh_passenger" depart="191.85" departLane="best" from="-408251037#1" to="-256404544#4"/>
    <trip id="veh120" type="veh_passenger" depart="193.46" departLane="best" from="-373726395#4" to="32584870#12"/>
    <trip id="veh121" type="veh_passenger" depart="195.07" departLane="best" departSpeed="max" from="256404544#0" to="32584870#3"/>
    <trip id="veh122" type="veh_passenger" depart="196.68" departLane="best" from="-408197643#1" to="-256404544#0"/>
    <trip id="veh123" type="veh_passenger" depart="198.30" departLane="best" from="-32581500#14" to="373726396#6"/>
    <trip id="veh124" type="veh_passenger" depart="199.91" departLane="best" from="-373726397#3" to="-373726400#1"/>
    <trip id="veh125" type="veh_passenger" depart="201.52" departLane="best" from="32583651#3" to="-373726392#1"/>
    <trip id="veh126" type="veh_passenger" depart="203.13" departLane="best" departSpeed="max" from="-373726397#14" to="-408197643#2"/>
    <trip id="veh127" type="veh_passenger" depart="204.74" departLane="best" from="-462954285#1" to="-373726390#2"/>
    <trip id="veh128" type="veh_passenger" depart="206.36" departLane="best" from="408221529#1" to="32578286#9"/>
    <trip id="veh129" type="veh_passenger" depart="207.97" departLane="best" departSpeed="max" from="-373726397#14" to="-235765959#1"/>
    <trip id="veh130" type="veh_passenger" depart="209.58" departLane="best" from="508078679#1" to="256404544#6"/>
    <trip id="veh131" type="veh_passenger" depart="211.19" departLane="best" departSpeed="max" from="32581500#0" to="-462954287#2"/>
    <trip id="veh132" type="veh_passenger" depart="212.81" departLane="best" departSpeed="max" from="-511517517" to="-32581670#0"/>
    <trip id="veh133" type="veh_passenger" depart="214.42" departLane="best" from="-32578286#1" to="235765782#2"/>
    <trip id="veh134" type="veh_passenger" depart="216.03" departLane="best" from="32581226#4" to="-373726397#0"/>
    <trip id="veh135" type="veh_passenger" depart="217.64" departLane="best" from="-373726394#2" to="-508078680#0"/>
    <trip id="veh136" type="veh_passenger" depart="219.25" departLane="best" from="373726400#2" to="-256404544#0"/>
    <trip id="veh137" type="veh_passenger" depart="220.87" departLane="best" from="-462954286#2" to="32581226#2"/>
    <trip id="veh138" type="veh_passenger" depart="222.48" departLane="best" from="-32584870#11" to="-32583651#1"/>
    <trip id="veh139" type="veh_passenger" depart="224.09" departLane="best" from="235765783#5" to="-32582260#5"/>
    <trip id="veh140" type="veh_passenger" depart="225.70" departLane="best" from="32581500#1" to="-235765782#2"/>
    <trip id="veh141" type="veh_passenger" depart="227.31" departLane="best" from="-32587317#1" to="373726395#6"/>
    <trip id="veh142" type="veh_passenger" depart="228.93" departLane="best" departSpeed="max" from="-32578286#9" to="408251037#0"/>
    <trip id="veh143" type="veh_passenger" depart="230.54" departLane="best" from="-373726395#1" to="-373726400#1"/>
    <trip id="veh144" type="veh_passenger" depart="232.15" departLane="best" from="32581500#2" to="525107158#0"/>
    <trip id="veh145" type="veh_passenger" depart="233.76" departLane="best" departSpeed="max" from="408197643#0" to="32578286#9"/>
    <trip id="veh146" type="veh_passenger" depart="235.38" departLane="best" from="408197643#2" to="-373726390#2"/>
    <trip id="veh147" type="veh_passenger" depart="236.99" departLane="best" from="235765782#2" to="-32584870#0"/>
    <trip id="veh148" type="veh_passenger" depart="238.60" departLane="best" from="-304959969#0" to="32587317#3"/>
    <trip id="veh149" type="veh_passenger" depart="240.21" departLane="best" departSpeed="max" from="256404544#0" to="-32580739#0"/>
    <trip id="veh150" type="veh_passenger" depart="241.82" departLane="best" departSpeed="max" from="32582260#0" to="235765959#3"/>
    <trip id="veh151" type="veh_passenger" depart="243.44" departLane="best" from="462954285#4" to="235765957#3"/>
    <trip id="veh152" type="veh_passenger" depart="245.05" departLane="best" from="-462954286#3" to="-32581500#9"/>
    <trip id="veh153" type="veh_passenger" depart="246.66" departLane="best" from="373726400#4" to="462954287#1"/>
    <trip id="veh154" type="veh_passenger" depart="248.27" departLane="best" from="-462954286#4" to="373726392#1"/>
    <trip id="veh155" type="veh_passenger" depart="249.88" departLane="best" departSpeed="max" from="256404544#0" to="32578286#5"/>
    <trip id="veh156" type="veh_passenger" depart="251.50" departLane="best" from="508078680#2" to="-235765783#6"/>
    <trip id="veh157" type="veh_passenger" depart="253.11" departLane="best" from="373726400#1" to="-32581670#2"/>
    <trip id="veh158" type="veh_passenger" depart="254.72" departLane="best" from="-462954285#2" to="-32581226#4"/>
    <trip id="veh159" type="veh_passenger" depart="256.33" departLane="best" from="-462954284#2" to="256404544#10"/>
    <trip id="veh160" type="veh_passenger" depart="257.95" departLane="best" from="-235765957#1" to="32581226#8"/>
    <trip id="veh161" type="veh_passenger" depart="259.56" departLane="best" from="32581500#1" to="-462954287#0"/>
    <trip id="veh162" type="veh_passenger" depart="261.17" departLane="best" departSpeed="max" from="-256404544#10" to="-373726400#1"/>
    <trip id="veh163" type="veh_passenger" depart="262.78" departLane="best" from="-373726395#3" to="-256404544#2"/>
    <trip id="veh164" type="veh_passenger" depart="264.39" departLane="best" from="-608787986#1" to="-373726397#12"/>
    <trip id="veh165" type="veh_passenger" depart="266.01" departLane="best" from="-462954286#4" to="-32581500#4"/>
    <trip id="veh166" type="veh_passenger" depart="267.62" departLane="best" from="-235765783#7" to="-32581226#0"/>
    <trip id="veh167" type="veh_passenger" depart="269.23" departLane="best" departSpeed="max" from="32582260#0" to="373726395#5"/>
    <trip id="veh168" type="veh_passenger" depart="270.84" departLane="best" from="-32581670#1" to="32578286#7"/>
    <trip id="veh169" type="veh_passenger" depart="272.45" departLane="best" from="-373726397#12" to="-508078679#2"/>
    <trip id="veh170" type="veh_passenger" depart="274.07" departLane="best" departSpeed="max" from="-32578286#9" to="-235765783#5"/>
    <trip id="veh171" type="veh_passenger" depart="275.68" departLane="best" from="32583651#0" to="-256404544#0"/>
    <trip id="veh172" type="veh_passenger" depart="277.29" departLane="best" from="32581670#2" to="32581226#1"/>
    <trip id="veh173" type="veh_passenger" depart="278.90" departLane="best" departSpeed="max" from="-32578286#9" to="373726395#6"/>
    <trip id="veh174" type="veh_passenger" depart="280.52" departLane="best" from="373726400#2" to="32578286#4"/>
    <trip id="veh175" type="veh_passenger" depart="282.13" departLane="best" from="-508078679#0" to="-373726400#0"/>
    <trip id="veh176" type="veh_passenger" depart="283.74" departLane="best" from="235765957#0" to="-373726397#0"/>
    <trip id="veh177" type="veh_passenger" depart="285.35" departLane="best" from="373726400#2" to="373726397#2"/>
    <trip id="veh178" type="veh_passenger" depart="286.96" departLane="best" departSpeed="max" from="-32578286#9" to="508078679#1"/>
    <trip id="veh179" type="veh_passenger" depart="288.58" departLane="best" departSpeed="max" from="32582260#0" to="-462954284#2"/>
    <trip id="veh180" type="veh_passenger" depart="290.19" departLane="best" from="-32584870#10" to="-508078680#1"/>
    <trip id="veh181" type="veh_passenger" depart="291.80" departLane="best" from="-525107166" to="32578286#9"/>
    <trip id="veh182" type="veh_passenger" depart="293.41" departLane="best" from="-373726400#3" to="373727573#1"/>
    <trip id="veh183" type="veh_passenger" depart="295.03" departLane="best" departSpeed="max" from="32582260#0" to="-32584870#7"/>
    <trip id="veh184" type="veh_passenger" depart="296.64" departLane="best" from="-235765783#2" to="462954286#3"/>
    <trip id="veh185" type="veh_passenger" depart="298.25" departLane="best" from="235765783#2" to="373726395#0"/>
    <trip id="veh186" type="veh_passenger" depart="299.86" departLane="best" from="32581670#2" to="-32581500#1"/>
    <trip id="veh187" type="veh_passenger" depart="301.47" departLane="best" from="32581670#3" to="373726394#1"/>
    <trip id="veh188" type="veh_passenger" depart="303.09" departLane="best" departSpeed="max" from="32578286#0" to="-508078679#2"/>
    <trip id="veh189" type="veh_passenger" depart="304.70" departLane="best" departSpeed="max" from="32582260#0" to="-32584870#3"/>
    <trip id="veh190" type="veh_passenger" depart="306.31" departLane="best" from="-373726395#3" to="-32578286#4"/>
    <trip id="veh191" type="veh_passenger" depart="307.92" departLane="best" from="32583651#1" to="-32581670#0"/>
    <trip id="veh192" type="veh_passenger" depart="309.53" departLane="best" from="508078680#1" to="235765783#4"/>
    <trip id="veh193" type="veh_passenger" depart="311.15" departLane="best" departSpeed="max" from="-373726396#7" to="-304959969#1"/>
    <trip id="veh194" type="veh_passenger" depart="312.76" departLane="best" from="-32584870#11" to="-32581671#1"/>
    <trip id="veh195" type="veh_passenger" depart="314.37" departLane="best" from="32582260#4" to="-235765783#0"/>
    <trip id="veh196" type="veh_passenger" depart="315.98" departLane="best" departSpeed="max" from="508078680#0" to="235765959#3"/>
    <trip id="veh197" type="veh_passenger" depart="317.60" departLane="best" departSpeed="max" from="32582260#0" to="-32578286#6"/>
    <trip id="veh198" type="veh_passenger" depart="319.21" departLane="best" departSpeed="max" from="373727572#0" to="-508078680#3"/>
    <trip id="veh199" type="veh_passenger" depart="320.82" departLane="best" departSpeed="max" from="373727572#0" to="256404544#3"/>
    <trip id="veh200" type="veh_passenger" depart="322.43" departLane="best" from="235765782#0" to="-462954285#0"/>
    <trip id="veh201" type="veh_passenger" depart="324.04" departLane="best" from="-32583651#0" to="-235765959#0"/>
    <trip id="veh202" type="veh_passenger" depart="325.66" departLane="best" from="462954286#0" to="-508078680#0"/>
    <trip id="veh203" type="veh_passenger" depart="327.27" departLane="best" from="373726390#2" to="32578286#7"/>
    <trip id="veh204" type="veh_passenger" depart="328.88" departLane="best" from="373726396#1" to="-32581671#0"/>
    <trip id="veh205" type="veh_passenger" depart="330.49" departLane="best" departSpeed="max" from="235765959#0" to="-462954286#0"/>
    <trip id="veh206" type="veh_passenger" depart="332.10" departLane="best" departSpeed="max" from="-511517517" to="373726400#7"/>
    <trip id="veh207" type="veh_passenger" depart="333.72" departLane="best" departSpeed="max" from="32581226#0" to="32578286#8"/>
    <trip id="veh208" type="veh_passenger" depart="335.33" departLane="best" from="32584870#3" to="462954286#3"/>
    <trip id="veh209" type="veh_passenger" depart="336.94" departLane="best" from="-32584870#3" to="-32581670#0"/>
    <trip id="veh210" type="veh_passenger" depart="338.55" departLane="best" from="-32581500#12" to="-32581226#0"/>
    <trip id="veh211" type="veh_passenger" depart="340.17" departLane="best" from="-32581671#0" to="-256404544#0"/>
    <trip id="veh212" type="veh_passenger" depart="341.78" departLane="best" from="32578286#6" to="-373726390#0"/>
    <trip id="veh213" type="veh_passenger" depart="343.39" departLane="best" departSpeed="max" from="32582260#0" to="-462954286#1"/>
    <trip id="veh214" type="veh_passenger" depart="345.00" departLane="best" from="373726395#5" to="-32580739#3"/>
    <trip id="veh215" type="veh_passenger" depart="346.61" departLane="best" departSpeed="max" from="32581500#0" to="408221529#3"/>
    <trip id="veh216" type="veh_passenger" depart="348.23" departLane="best" from="-373726397#5" to="-256404544#0"/>
    <trip id="veh217" type="veh_passenger" depart="349.84" departLane="best" from="-32581500#9" to="373726394#2"/>
    <trip id="veh218" type="veh_passenger" depart="351.45" departLane="best" from="-32584870#9" to="256404544#10"/>
    <trip id="veh219" type="veh_passenger" depart="353.06" departLane="best" departSpeed="max" from="-373726396#7" to="-32578286#5"/>
    <trip id="veh220" type="veh_passenger" depart="354.68" departLane="best" from="235765783#5" to="-256404544#1"/>
    <trip id="veh221" type="veh_passenger" depart="356.29" departLane="best" from="235765959#2" to="-462954284#1"/>
    <trip id="veh222" type="veh_passenger" depart="357.90" departLane="best" from="373726398#0" to="-256404544#4"/>
    <trip id="veh223" type="veh_passenger" depart="359.51" departLane="best" from="235765959#2" to="373726394#2"/>
    <trip id="veh224" type="veh_passenger" depart="361.12" departLane="best" from="235765782#0" to="32581500#13"/>
    <trip id="veh225" type="veh_passenger" depart="362.74" departLane="best" from="-408251037#1" to="-32581500#0"/>
    <trip id="veh226" type="veh_passenger" depart="364.35" departLane="best" from="235765783#4" to="-256404544#6"/>
    <trip id="veh227" type="veh_passenger" depart="365.96" departLane="best" from="-373726400#6" to="-373726397#0"/>
    <trip id="veh228" type="veh_passenger" depart="367.57" departLane="best" from="-32581500#6" to="373726400#6"/>
    <trip id="veh229" type="veh_passenger" depart="369.18" departLane="best" departSpeed="max" from="-373726396#7" to="462954286#2"/>