<?xml version="1.0" encoding="UTF-8"?>

<!-- generated on 2024-04-27 16:42:59.366125 by osmWebWizard.py v1_19_0+0000-baa66a0f364
<configuration>
    <net-file value="C:\Users\Acer\Sumo\2024-04-27-16-42-53\osm.net.xml.gz"/>
    <output-trip-file value="C:\Users\Acer\Sumo\2024-04-27-16-42-53\osm.motorcycle.trips.xml"/>
    <route-file value="C:\Users\Acer\Sumo\2024-04-27-16-42-53\osm.motorcycle.rou.xml"/>
    <prefix value="motorcycle"/>
    <trip-attributes value="departLane=&quot;best&quot;"/>
    <fringe-start-attributes value="departSpeed=&quot;max&quot;"/>
    <vehicle-class value="motorcycle"/>
    <fringe-factor value="2"/>
    <vclass value="motorcycle"/>
    <via-edge-types value="highway.motorway,highway.motorway_link,highway.trunk_link,highway.primary_link,highway.secondary_link,highway.tertiary_link"/>
    <max-distance value="1200.0"/>
    <remove-loops value="True"/>
    <validate value="True"/>
    <insertion-density value="200.0"/>
</configuration>
-->

<!-- generated on 2024-04-27 16:42:58 by Eclipse SUMO duarouter Version 1.19.0
<configuration xmlns:xsi="http://www.w3.org/2001/XMLSchema-instance" xsi:noNamespaceSchemaLocation="http://sumo.dlr.de/xsd/duarouterConfiguration.xsd">

    <input>
        <net-file value="C:\Users\Acer\Sumo\2024-04-27-16-42-53\osm.net.xml.gz"/>
        <route-files value="C:\Users\Acer\Sumo\2024-04-27-16-42-53\osm.motorcycle.trips.xml"/>
    </input>

    <output>
        <output-file value="C:\Users\Acer\Sumo\2024-04-27-16-42-53\osm.motorcycle.trips.xml.tmp"/>
        <alternatives-output value="NUL"/>
        <write-trips value="true"/>
    </output>

    <processing>
        <remove-loops value="true"/>
    </processing>

    <time>
        <begin value="0.0"/>
        <end value="3600.0"/>
    </time>

    <report>
        <no-warnings value="true"/>
        <ignore-errors value="true"/>
        <no-step-log value="true"/>
    </report>

</configuration>
-->

<routes xmlns:xsi="http://www.w3.org/2001/XMLSchema-instance" xsi:noNamespaceSchemaLocation="http://sumo.dlr.de/xsd/routes_file.xsd">
    <vType id="motorcycle_motorcycle" vClass="motorcycle"/>
    <trip id="motorcycle0" type="motorcycle_motorcycle" depart="0.00" departLane="best" from="32581226#7" to="-235765783#6"/>
    <trip id="motorcycle1" type="motorcycle_motorcycle" depart="0.81" departLane="best" from="-373726395#5" to="-32582260#5"/>
    <trip id="motorcycle2" type="motorcycle_motorcycle" depart="1.61" departLane="best" from="-32584870#7" to="-32581670#1"/>
    <trip id="motorcycle3" type="motorcycle_motorcycle" depart="2.42" departLane="best" from="408221529#1" to="-256404544#7"/>
    <trip id="motorcycle4" type="motorcycle_motorcycle" depart="3.22" departLane="best" from="-462954286#1" to="-235765783#8"/>
    <trip id="motorcycle5" type="motorcycle_motorcycle" depart="4.03" departLane="best" from="32584870#3" to="235765782#1"/>
    <trip id="motorcycle6" type="motorcycle_motorcycle" depart="4.84" departLane="best" from="-235765783#8" to="-32581670#0"/>
    <trip id="motorcycle7" type="motorcycle_motorcycle" depart="5.64" departLane="best" departSpeed="max" from="32581500#0" to="235765957#5"/>
    <trip id="motorcycle8" type="motorcycle_motorcycle" depart="6.45" departLane="best" from="-32584870#4" to="304959969#1"/>
    <trip id="motorcycle9" type="motorcycle_motorcycle" depart="7.25" departLane="best" from="-373726397#10" to="-235765782#2"/>
    <trip id="motorcycle10" type="motorcycle_motorcycle" depart="8.06" departLane="best" departSpeed="max" from="373726397#0" to="-32583651#1"/>
    <trip id="motorcycle11" type="motorcycle_motorcycle" depart="8.87" departLane="best" from="373726400#1" to="-32581226#6"/>
    <trip id="motorcycle12" type="motorcycle_motorcycle" depart="9.67" departLane="best" from="508078678" to="373726397#13"/>
    <trip id="motorcycle13" type="motorcycle_motorcycle" depart="10.48" departLane="best" from="-32578286#1" to="304959969#1"/>
    <trip id="motorcycle14" type="motorcycle_motorcycle" depart="11.29" departLane="best" from="-373726400#3" to="32578286#5"/>
    <trip id="motorcycle15" type="motorcycle_motorcycle" depart="12.09" departLane="best" from="373726397#1" to="32587317#0"/>
    <trip id="motorcycle16" type="motorcycle_motorcycle" depart="12.90" departLane="best" from="235765959#1" to="511517517"/>
    <trip id="motorcycle17" type="motorcycle_motorcycle" depart="13.70" departLane="best" from="-408221529#3" to="235765959#3"/>
    <trip id="motorcycle18" type="motorcycle_motorcycle" depart="14.51" departLane="best" from="-373726397#8" to="-32580739#1"/>
    <trip id="motorcycle19" type="motorcycle_motorcycle" depart="15.32" departLane="best" departSpeed="max" from="373727572#0" to="256404544#6"/>
    <trip id="motorcycle20" type="motorcycle_motorcycle" depart="16.12" departLane="best" from="32582260#5" to="-235765957#4"/>
    <trip id="motorcycle21" type="motorcycle_motorcycle" depart="16.93" departLane="best" from="-32584870#9" to="373726394#1"/>
    <trip id="motorcycle22" type="motorcycle_motorcycle" depart="17.73" departLane="best" from="-256404544#8" to="-32584870#0"/>
    <trip id="motorcycle23" type="motorcycle_motorcycle" depart="18.54" departLane="best" from="-32578286#5" to="-373726392#0"/>
    <trip id="motorcycle24" type="motorcycle_motorcycle" depart="19.35" departLane="best" from="-32581226#5" to="-373726400#3"/>
    <trip id="motorcycle25" type="motorcycle_motorcycle" depart="20.15" departLane="best" from="408197643#3" to="32581671#1"/>
    <trip id="motorcycle26" type="motorcycle_motorcycle" depart="20.96" departLane="best" from="-373726395#1" to="-462954286#0"/>
    <trip id="motorcycle27" type="motorcycle_motorcycle" depart="21.76" departLane="best" departSpeed="max" from="32581500#0" to="32578286#7"/>
    <trip id="motorcycle28" type="motorcycle_motorcycle" depart="22.57" departLane="best" from="-32581500#7" to="32584870#8"/>
    <trip id="motorcycle29" type="motorcycle_motorcycle" depart="23.38" departLane="best" from="32581500#2" to="-408197643#0"/>
    <trip id="motorcycle30" type="motorcycle_motorcycle" depart="24.18" departLane="best" from="-525107158#1" to="-32581226#7"/>
    <trip id="motorcycle31" type="motorcycle_motorcycle" depart="24.99" departLane="best" from="256404544#2" to="32581671#0"/>
    <trip id="motorcycle32" type="motorcycle_motorcycle" depart="25.79" departLane="best" from="373726400#2" to="-373726395#5"/>
    <trip id="motorcycle33" type="motorcycle_motorcycle" depart="26.60" departLane="best" from="-32587317#1" to="-235765783#9"/>
    <trip id="motorcycle34" type="motorcycle_motorcycle" depart="27.41" departLane="best" departSpeed="max" from="-373726397#14" to="32587317#4"/>
    <trip id="motorcycle35" type="motorcycle_motorcycle" depart="28.21" departLane="best" departSpeed="max" from="-32584870#12" to="462954286#2"/>
    <trip id="motorcycle36" type="motorcycle_motorcycle" depart="29.02" departLane="best" from="373727573#2" to="373726396#5"/>
    <trip id="motorcycle37" type="motorcycle_motorcycle" depart="29.82" departLane="best" from="32581500#10" to="408221529#2"/>
    <trip id="motorcycle38" type="motorcycle_motorcycle" depart="30.63" departLane="best" from="462954284#1" to="-508078678"/>
    <trip id="motorcycle39" type="motorcycle_motorcycle" depart="31.44" departLane="best" from="-373726395#0" to="32584870#3"/>
    <trip id="motorcycle40" type="motorcycle_motorcycle" depart="32.24" departLane="best" from="256404544#4" to="32587317#2"/>
    <trip id="motorcycle41" type="motorcycle_motorcycle" depart="33.05" departLane="best" departSpeed="max" from="32578286#0" to="408221529#3"/>
    <trip id="motorcycle42" type="motorcycle_motorcycle" depart="33.86" departLane="best" from="-462954284#2" to="-32582260#4"/>
    <trip id="motorcycle43" type="motorcycle_motorcycle" depart="34.66" departLane="best" from="-608787986#0" to="-235765783#1"/>
    <trip id="motorcycle44" type="motorcycle_motorcycle" depart="35.47" departLane="best" from="-32578286#1" to="-235765957#5"/>
    <trip id="motorcycle45" type="motorcycle_motorcycle" depart="36.27" departLane="best" from="-32578286#8" to="32581226#2"/>
    <trip id="motorcycle46" type="motorcycle_motorcycle" depart="37.08" departLane="best" from="373726396#2" to="-462954284#3"/>
    <trip id="motorcycle47" type="motorcycle_motorcycle" depart="37.89" departLane="best" departSpeed="max" from="-256404544#10" to="-408197643#0"/>
    <trip id="motorcycle48" type="motorcycle_motorcycle" depart="38.69" departLane="best" from="608787986#0" to="235765783#9"/>
    <trip id="motorcycle49" type="motorcycle_motorcycle" depart="39.50" departLane="best" from="508078680#1" to="373726400#9"/>
    <trip id="motorcycle50" type="motorcycle_motorcycle" depart="40.30" departLane="best" from="-235765783#2" to="-32584870#4"/>
    <trip id="motorcycle51" type="motorcycle_motorcycle" depart="41.11" departLane="best" from="32581670#1" to="-235765957#2"/>
    <trip id="motorcycle52" type="motorcycle_motorcycle" depart="41.92" departLane="best" from="-373726395#1" to="32581226#7"/>
    <trip id="motorcycle53" type="motorcycle_motorcycle" depart="42.72" departLane="best" departSpeed="max" from="-32578286#9" to="-462954285#3"/>
    <trip id="motorcycle54" type="motorcycle_motorcycle" depart="43.53" departLane="best" from="508078680#3" to="462954287#2"/>
    <trip id="motorcycle55" type="motorcycle_motorcycle" depart="44.33" departLane="best" from="373727573#2" to="-32587317#3"/>
    <trip id="motorcycle56" type="motorcycle_motorcycle" depart="45.14" departLane="best" from="235765783#3" to="32581500#13"/>
    <trip id="motorcycle57" type="motorcycle_motorcycle" depart="45.95" departLane="best" from="462954284#0" to="373727573#0"/>
    <trip id="motorcycle58" type="motorcycle_motorcycle" depart="46.75" departLane="best" departSpeed="max" from="-373726396#7" to="32581226#7"/>
    <trip id="motorcycle59" type="motorcycle_motorcycle" depart="47.56" departLane="best" departSpeed="max" from="32580739#0" to="-32581226#5"/>
    <trip id="motorcycle60" type="motorcycle_motorcycle" depart="48.36" departLane="best" from="373726392#1" to="235765957#3"/>
    <trip id="motorcycle61" type="motorcycle_motorcycle" depart="49.17" departLane="best" from="-373726395#1" to="235765783#9"/>
    <trip id="motorcycle62" type="motorcycle_motorcycle" depart="49.98" departLane="best" from="-235765782#0" to="-373726397#0"/>
    <trip id="motorcycle63" type="motorcycle_motorcycle" depart="50.78" departLane="best" from="-235765783#5" to="-462954285#2"/>
    <trip id="motorcycle64" type="motorcycle_motorcycle" depart="51.59" departLane="best" departSpeed="max" from="408197643#0" to="373726397#9"/>
    <trip id="motorcycle65" type="motorcycle_motorcycle" depart="52.40" departLane="best" from="-373726397#12" to="-235765959#2"/>
    <trip id="motorcycle66" type="motorcycle_motorcycle" depart="53.20" departLane="best" departSpeed="max" from="408197643#0" to="462954286#4"/>
    <trip id="motorcycle67" type="motorcycle_motorcycle" depart="54.01" departLane="best" from="-304959969#0" to="-523162209#1"/>
    <trip id="motorcycle68" type="motorcycle_motorcycle" depart="54.81" departLane="best" from="-256404544#4" to="373726394#1"/>
    <trip id="motorcycle69" type="motorcycle_motorcycle" depart="55.62" departLane="best" from="373726393" to="-32580739#0"/>
    <trip id="motorcycle70" type="motorcycle_motorcycle" depart="56.43" departLane="best" from="525107166" to="-235765959#2"/>
    <trip id="motorcycle71" type="motorcycle_motorcycle" depart="57.23" departLane="best" from="-373726395#0" to="373727573#1"/>
    <trip id="motorcycle72" type="motorcycle_motorcycle" depart="58.04" departLane="best" from="-462954286#2" to="-32582260#1"/>
    <trip id="motorcycle73" type="motorcycle_motorcycle" depart="58.84" departLane="best" from="235765959#2" to="32587317#0"/>
    <trip id="motorcycle74" type="motorcycle_motorcycle" depart="59.65" departLane="best" from="-32583651#3" to="373726396#2"/>
    <trip id="motorcycle75" type="motorcycle_motorcycle" depart="60.46" departLane="best" from="-608787986#0" to="-32581500#11"/>
    <trip id="motorcycle76" type="motorcycle_motorcycle" depart="61.26" departLane="best" from="-508078678" to="-235765783#4"/>
    <trip id="motorcycle77" type="motorcycle_motorcycle" depart="62.07" departLane="best" from="32580739#3" to="-32583651#0"/>
    <trip id="motorcycle78" type="motorcycle_motorcycle" depart="62.87" departLane="best" departSpeed="max" from="-373726398#1" to="304959969#1"/>
    <trip id="motorcycle79" type="motorcycle_motorcycle" depart="63.68" departLane="best" from="-32587317#1" to="-32582260#4"/>
    <trip id="motorcycle80" type="motorcycle_motorcycle" depart="64.49" departLane="best" from="-256404544#4" to="32581226#3"/>
    <trip id="motorcycle81" type="motorcycle_motorcycle" depart="65.29" departLane="best" from="32587317#0" to="408251037#0"/>
    <trip id="motorcycle82" type="motorcycle_motorcycle" depart="66.10" departLane="best" from="373726400#8" to="-256404544#0"/>
    <trip id="motorcycle83" type="motorcycle_motorcycle" depart="66.90" departLane="best" from="32587317#4" to="-32581500#6"/>
    <trip id="motorcycle84" type="motorcycle_motorcycle" depart="67.71" departLane="best" from="-32584870#2" to="32580739#1"/>
    <trip id="motorcycle85" type="motorcycle_motorcycle" depart="68.52" departLane="best" from="462954285#4" to="-256404544#4"/>
    <trip id="motorcycle86" type="motorcycle_motorcycle" depart="69.32" departLane="best" from="525107165" to="373726396#1"/>
    <trip id="motorcycle87" type="motorcycle_motorcycle" depart="70.13" departLane="best" from="373726397#1" to="-32581500#7"/>
    <trip id="motorcycle88" type="motorcycle_motorcycle" depart="70.94" departLane="best" from="-32578286#3" to="-462954285#2"/>
    <trip id="motorcycle89" type="motorcycle_motorcycle" depart="71.74" departLane="best" from="462954286#2" to="-508078680#0"/>
    <trip id="motorcycle90" type="motorcycle_motorcycle" depart="72.55" departLane="best" from="32584870#3" to="32581500#8"/>
    <trip id="motorcycle91" type="motorcycle_motorcycle" depart="73.35" departLane="best" from="523162209#1" to="304959969#2"/>
    <trip id="motorcycle92" type="motorcycle_motorcycle" depart="74.16" departLane="best" from="-462954284#3" to="-373726397#3"/>
    <trip id="motorcycle93" type="motorcycle_motorcycle" depart="74.97" departLane="best" departSpeed="max" from="373727572#0" to="-32584870#4"/>
    <trip id="motorcycle94" type="motorcycle_motorcycle" depart="75.77" departLane="best" from="32582260#4" to="462954286#4"/>
    <trip id="motorcycle95" type="motorcycle_motorcycle" depart="76.58" departLane="best" from="-462954286#1" to="-373726392#0"/>
    <trip id="motorcycle96" type="motorcycle_motorcycle" depart="77.38" departLane="best" from="373726392#0" to="-462954284#4"/>
    <trip id="motorcycle97" type="motorcycle_motorcycle" depart="78.19" departLane="best" from="508078679#1" to="373726400#9"/>
    <trip id="motorcycle98" type="motorcycle_motorcycle" depart="79.00" departLane="best" departSpeed="max" from="256404544#0" to="-235765959#0"/>
    <trip id="motorcycle99" type="motorcycle_motorcycle" depart="79.80" departLane="best" from="-608787986#1" to="373726398#1"/>
    <trip id="motorcycle100" type="motorcycle_motorcycle" depart="80.61" departLane="best" departSpeed="max" from="508078680#0" to="462954285#1"/>
    <trip id="motorcycle101" type="motorcycle_motorcycle" depart="81.41" departLane="best" from="-373726400#4" to="-32581500#0"/>
    <trip id="motorcycle102" type="motorcycle_motorcycle" depart="82.22" departLane="best" from="235765782#1" to="-32582260#1"/>
    <trip id="motorcycle103" type="motorcycle_motorcycle" depart="83.03" departLane="best" from="-462954284#3" to="-235765959#2"/>
    <trip id="motorcycle104" type="motorcycle_motorcycle" depart="83.83" departLane="best" from="-408221529#3" to="525107158#0"/>
    <trip id="motorcycle105" type="motorcycle_motorcycle" depart="84.64" departLane="best" from="-373726395#0" to="373726396#1"/>
    <trip id="motorcycle106" type="motorcycle_motorcycle" depart="85.44" departLane="best" departSpeed="max" from="-511517517" to="-462954284#4"/>
    <trip id="motorcycle107" type="motorcycle_motorcycle" depart="86.25" departLane="best" from="508078678" to="608787986#0"/>
    <trip id="motorcycle108" type="motorcycle_motorcycle" depart="87.06" departLane="best" from="256404544#2" to="32584870#3"/>
    <trip id="motorcycle109" type="motorcycle_motorcycle" depart="87.86" departLane="best" from="-32581500#14" to="-373726395#1"/>
    <trip id="motorcycle110" type="motorcycle_motorcycle" depart="88.67" departLane="best" departSpeed="max" from="508078680#0" to="256404544#7"/>
    <trip id="motorcycle111" type="motorcycle_motorcycle" depart="89.47" departLane="best" from="-235765959#3" to="-373726390#2"/>
    <trip id="motorcycle112" type="motorcycle_motorcycle" depart="90.28" departLane="best" from="256404544#1" to="256404544#9"/>
    <trip id="motorcycle113" type="motorcycle_motorcycle" depart="91.09" departLane="best" from="235765783#4" to="373726400#6"/>
    <trip id="motorcycle114" type="motorcycle_motorcycle" depart="91.89" departLane="best" departSpeed="max" from="-32581500#16" to="508078679#1"/>
    <trip id="motorcycle115" type="motorcycle_motorcycle" depart="92.70" departLane="best" from="-256404544#8" to="-32581500#4"/>
    <trip id="motorcycle116" type="motorcycle_motorcycle" depart="93.51" departLane="best" from="32578286#4" to="-32581500#9"/>
    <trip id="motorcycle117" type="motorcycle_motorcycle" depart="94.31" departLane="best" from="-32587317#3" to="-32578286#6"/>
    <trip id="motorcycle118" type="motorcycle_motorcycle" depart="95.12" departLane="best" from="408221529#0" to="-32584870#3"/>
    <trip id="motorcycle119" type="motorcycle_motorcycle" depart="95.92" departLane="best" from="32578286#3" to="-32580739#2"/>
    <trip id="motorcycle120" type="motorcycle_motorcycle" depart="96.73" departLane="best" from="462954286#0" to="256404544#9"/>
    <trip id="motorcycle121" type="motorcycle_motorcycle" depart="97.54" departLane="best" from="235765957#2" to="-462954285#4"/>
    <trip id="motorcycle122" type="motorcycle_motorcycle" depart="98.34" departLane="best" from="-32584870#10" to="-32584870#2"/>
    <trip id="motorcycle123" type="motorcycle_motorcycle" depart="99.15" departLane="best" from="-32587317#7" to="408221529#2"/>
    <trip id="motorcycle124" type="motorcycle_motorcycle" depart="99.95" departLane="best" from="-32581500#7" to="-373726395#4"/>
    <trip id="motorcycle125" type="motorcycle_motorcycle" depart="100.76" departLane="best" departSpeed="max" from="-373726397#14" to="-373726392#1"/>
    <trip id="motorcycle126" type="motorcycle_motorcycle" depart="101.57" departLane="best" from="-256404544#5" to="-508078678"/>
    <trip id="motorcycle127" type="motorcycle_motorcycle" depart="102.37" departLane="best" from="-608787986#1" to="-608787986#0"/>
    <trip id="motorcycle128" type="motorcycle_motorcycle" depart="103.18" departLane="best" from="-256404544#5" to="-32582260#1"/>
    <trip id="motorcycle129" type="motorcycle_motorcycle" depart="103.98" departLane="best" from="-373726395#0" to="462954285#3"/>
    <trip id="motorcycle130" type="motorcycle_motorcycle" depart="104.79" departLane="best" departSpeed="max" from="408197643#0" to="373727573#3"/>
    <trip id="motorcycle131" type="motorcycle_motorcycle" depart="105.60" departLane="best" from="408197643#3" to="-32581226#7"/>
    <trip id="motorcycle132" type="motorcycle_motorcycle" depart="106.40" departLane="best" from="373726398#0" to="32584870#1"/>
    <trip id="motorcycle133" type="motorcycle_motorcycle" depart="107.21" departLane="best" departSpeed="max" from="32580739#0" to="525107158#0"/>
    <trip id="motorcycle134" type="motorcycle_motorcycle" depart="108.01" departLane="best" from="-32581500#11" to="-235765783#0"/>
    <trip id="motorcycle135" type="motorcycle_motorcycle" depart="108.82" departLane="best" from="373726397#13" to="-373726395#3"/>
    <trip id="motorcycle136" type="motorcycle_motorcycle" depart="109.63" departLane="best" from="-32581500#14" to="462954286#1"/>
    <trip id="motorcycle137" type="motorcycle_motorcycle" depart="110.43" departLane="best" from="32581226#5" to="-32578286#4"/>
    <trip id="motorcycle138" type="motorcycle_motorcycle" depart="111.24" departLane="best" from="-32578286#7" to="235765959#4"/>
    <trip id="motorcycle139" type="motorcycle_motorcycle" depart="112.05" departLane="best" from="-373726395#4" to="32578286#6"/>
    <trip id="motorcycle140" type="motorcycle_motorcycle" depart="112.85" departLane="best" from="32584870#1" to="-32581670#2"/>
    <trip id="motorcycle141" type="motorcycle_motorcycle" depart="113.66" departLane="best" from="32581226#5" to="32587317#3"/>
    <trip id="motorcycle142" type="motorcycle_motorcycle" depart="114.46" departLane="best" from="-235765782#2" to="408251037#0"/>
    <trip id="motorcycle143" type="motorcycle_motorcycle" depart="115.27" departLane="best" from="373726400#3" to="-256404544#9"/>
    <trip id="motorcycle144" type="motorcycle_motorcycle" depart="116.08" departLane="best" from="-462954286#2" to="-373726390#2"/>
    <trip id="motorcycle145" type="motorcycle_motorcycle" depart="116.88" departLane="best" from="-235765782#1" to="373726395#3"/>
    <trip id="motorcycle146" type="motorcycle_motorcycle" depart="117.69" departLane="best" from="32581226#6" to="-32587317#2"/>
    <trip id="motorcycle147" type="motorcycle_motorcycle" depart="118.49" departLane="best" from="32587317#0" to="235765959#3"/>
    <trip id="motorcycle148" type="motorcycle_motorcycle" depart="119.30" departLane="best" from="-462954286#4" to="-235765783#0"/>
    <trip id="motorcycle149" type="motorcycle_motorcycle" depart="120.11" departLane="best" from="-256404544#6" to="408197643#1"/>
    <trip id="motorcycle150" type="motorcycle_motorcycle" depart="120.91" departLane="best" from="408221530#1" to="235765959#1"/>
    <trip id="motorcycle151" type="motorcycle_motorcycle" depart="121.72" departLane="best" from="373726398#0" to="256404544#9"/>
    <trip id="motorcycle152" type="motorcycle_motorcycle" depart="122.52" departLane="best" from="-32581500#11" to="-32580739#0"/>
    <trip id="motorcycle153" type="motorcycle_motorcycle" depart="123.33" departLane="best" from="-373726397#12" to="408221529#3"/>
    <trip id="motorcycle154" type="motorcycle_motorcycle" depart="124.14" departLane="best" from="-373726396#5" to="373726400#9"/>
    <trip id="motorcycle155" type="motorcycle_motorcycle" depart="124.94" departLane="best" from="-408221529#3" to="-32581671#1"/>
    <trip id="motorcycle156" type="motorcycle_motorcycle" depart="125.75" departLane="best" from="373726392#0" to="-32578286#0"/>
    <trip id="motorcycle157" type="motorcycle_motorcycle" depart="126.55" departLane="best" from="-373726395#3" to="408197643#1"/>
    <trip id="motorcycle158" type="motorcycle_motorcycle" depart="127.36" departLane="best" from="-462954285#0" to="32580739#2"/>
    <trip id="motorcycle159" type="motorcycle_motorcycle" depart="128.17" departLane="best" from="-32581500#13" to="462954285#2"/>
    <trip id="motorcycle160" type="motorcycle_motorcycle" depart="128.97" departLane="best" departSpeed="max" from="373727572#0" to="511517517"/>
    <trip id="motorcycle161" type="motorcycle_motorcycle" depart="129.78" departLane="best" from="-373726397#10" to="373727573#3"/>
    <trip id="motorcycle162" type="motorcycle_motorcycle" depart="130.58" departLane="best" from="-235765783#8" to="-32587317#3"/>
    <trip id="motorcycle163" type="motorcycle_motorcycle" depart="131.39" departLane="best" from="-373726398#0" to="-462954285#2"/>
    <trip id="motorcycle164" type="motorcycle_motorcycle" depart="132.20" departLane="best" departSpeed="max" from="373726397#0" to="373726400#9"/>
    <trip id="motorcycle165" type="motorcycle_motorcycle" depart="133.00" departLane="best" from="-373726397#10" to="32587317#4"/>
    <trip id="motorcycle166" type="motorcycle_motorcycle" depart="133.81" departLane="best" from="373726396#0" to="-32578286#1"/>
    <trip id="motorcycle167" type="motorcycle_motorcycle" depart="134.62" departLane="best" from="-32581500#14" to="373726400#8"/>
    <trip id="motorcycle168" type="motorcycle_motorcycle" depart="135.42" departLane="best" from="-32584870#5" to="373726397#14"/>
    <trip id="motorcycle169" type="motorcycle_motorcycle" depart="136.23" departLane="best" from="-511969291" to="-373726396#0"/>
    <trip id="motorcycle170" type="motorcycle_motorcycle" depart="137.03" departLane="best" from="-373726396#3" to="-32583651#1"/>
    <trip id="motorcycle171" type="motorcycle_motorcycle" depart="137.84" departLane="best" from="-235765783#7" to="32581500#8"/>
    <trip id="motorcycle172" type="motorcycle_motorcycle" depart="138.65" departLane="best" from="373726397#8" to="373726400#9"/>
    <trip id="motorcycle173" type="motorcycle_motorcycle" depart="139.45" departLane="best" departSpeed="max" from="508078680#0" to="-373726392#0"/>
    <trip id="motorcycle174" type="motorcycle_motorcycle" depart="140.26" departLane="best" from="32581226#8" to="408221529#3"/>
    <trip id="motorcycle175" type="motorcycle_motorcycle" depart="141.06" departLane="best" from="523162209#0" to="235765957#2"/>
    <trip id="motorcycle176" type="motorcycle_motorcycle" depart="141.87" departLane="best" from="462954286#1" to="-32578286#4"/>
    <trip id="motorcycle177" type="motorcycle_motorcycle" depart="142.68" departLane="best" departSpeed="max" from="508078680#0" to="32581500#13"/>
    <trip id="motorcycle178" type="motorcycle_motorcycle" depart="143.48" departLane="best" from="-508078679#1" to="-32587317#5"/>
    <trip id="motorcycle179" type="motorcycle_motorcycle" depart="144.29" departLane="best" from="-32578286#8" to="-462954285#3"/>
    <trip id="motorcycle180" type="motorcycle_motorcycle" depart="145.09" departLane="best" from="32584870#3" to="-373726396#3"/>
    <trip id="motorcycle181" type="motorcycle_motorcycle" depart="145.90" departLane="best" from="-32578286#8" to="235765783#2"/>
    <trip id="motorcycle182" type="motorcycle_motorcycle" depart="146.71" departLane="best" from="-408221530#1" to="256404544#6"/>
    <trip id="motorcycle183" type="motorcycle_motorcycle" depart="147.51" departLane="best" from="-373726393" to="32584870#11"/>
    <trip id="motorcycle184" type="motorcycle_motorcycle" depart="148.32" departLane="best" from="-235765782#0" to="-462954285#0"/>
    <trip id="motorcycle185" type="motorcycle_motorcycle" depart="149.12" departLane="best" from="235765959#2" to="-32584870#3"/>
    <trip id="motorcycle186" type="motorcycle_motorcycle" depart="149.93" departLane="best" from="32587317#0" to="-32581500#6"/>
    <trip id="motorcycle187" type="motorcycle_motorcycle" depart="150.74" departLane="best" from="-408197643#1" to="-256404544#0"/>
    <trip id="motorcycle188" type="motorcycle_motorcycle" depart="151.54" departLane="best" from="32581500#2" to="-373726397#11"/>
    <trip id="motorcycle189" type="motorcycle_motorcycle" depart="152.35" departLane="best" departSpeed="max" from="-373726397#14" to="-373726400#4"/>
    <trip id="motorcycle190" type="motorcycle_motorcycle" depart="153.16" departLane="best" from="32584870#1" to="373726395#4"/>
    <trip id="motorcycle191" type="motorcycle_motorcycle" depart="153.96" departLane="best" from="-373726397#12" to="408251037#1"/>
    <trip id="motorcycle192" type="motorcycle_motorcycle" depart="154.77" departLane="best" from="-462954284#3" to="-373726395#1"/>
    <trip id="motorcycle193" type="motorcycle_motorcycle" depart="155.57" departLane="best" from="-32581226#2" to="-462954284#3"/>
    <trip id="motorcycle194" type="motorcycle_motorcycle" depart="156.38" departLane="best" from="462954286#1" to="-32581670#1"/>
    <trip id="motorcycle195" type="motorcycle_motorcycle" depart="157.19" departLane="best" from="408221530#1" to="32578286#9"/>
    <trip id="motorcycle196" type="motorcycle_motorcycle" depart="157.99" departLane="best" from="373726397#1" to="235765959#2"/>
    <trip id="motorcycle197" type="motorcycle_motorcycle" depart="158.80" departLane="best" from="-235765782#0" to="-373726394#0"/>
    <trip id="motorcycle198" type="motorcycle_motorcycle" depart="159.60" departLane="best" from="-462954286#4" to="256404544#8"/>
    <trip id="motorcycle199" type="motorcycle_motorcycle" depart="160.41" departLane="best" from="32581500#10" to="508078679#2"/>
    <trip id="motorcycle200" type="motorcycle_motorcycle" depart="161.22" departLane="best" from="-508078679#0" to="-32582260#1"/>
    <trip id="motorcycle201" type="motorcycle_motorcycle" depart="162.02" departLane="best" from="525107165" to="408221530#0"/>
    <trip id="motorcycle202" type="motorcycle_motorcycle" depart="162.83" departLane="best" from="-373726396#3" to="-32581500#1"/>
    <trip id="motorcycle203" type="motorcycle_motorcycle" depart="163.63" departLane="best" from="-304959969#0" to="235765783#3"/>
    <trip id="motorcycle204" type="motorcycle_motorcycle" depart="164.44" departLane="best" from="32581226#4" to="373726397#13"/>
    <trip id="motorcycle205" type="motorcycle_motorcycle" depart="165.25" departLane="best" from="373726397#2" to="373726392#0"/>
    <trip id="motorcycle206" type="motorcycle_motorcycle" depart="166.05" departLane="best" from="-32581500#7" to="-32583651#0"/>
    <trip id="motorcycle207" type="motorcycle_motorcycle" depart="166.86" departLane="best" from="-32583651#3" to="-235765783#5"/>
    <trip id="motorcycle208" type="motorcycle_motorcycle" depart="167.66" departLane="best" from="373726390#1" to="-508078680#2"/>
    <trip id="motorcycle209" type="motorcycle_motorcycle" depart="168.47" departLane="best" from="373726400#4" to="-256404544#1"/>
    <trip id="motorcycle210" type="motorcycle_motorcycle" depart="169.28" departLane="best" from="-462954285#3" to="32581226#3"/>