<?xml version="1.0" encoding="UTF-8"?>

<!-- generated on 2024-06-20 02:24:48.241109 by randomTrips.py v1_20_0+0002-343658e7c64
<configuration>
    <net-file value="F:\Project\Thesis\Thesis\Sumo\traci\map6\map6.net.xml"/>
    <output-trip-file value="F:\Project\Thesis\Thesis\Sumo\traci\map6\car.trips.xml"/>
    <prefix value="passenger"/>
    <vehicle-class value="passenger"/>
    <insertion-rate value="720.0"/>
</configuration>
-->

<routes xmlns:xsi="http://www.w3.org/2001/XMLSchema-instance" xsi:noNamespaceSchemaLocation="http://sumo.dlr.de/xsd/routes_file.xsd">
    <vType id="passenger_passenger" vClass="passenger"/>
    <trip id="passenger0" depart="0.00" from="E16" to="-E13" type="passenger_passenger"/>
    <trip id="passenger1" depart="5.00" from="-E19" to="-E18" type="passenger_passenger"/>
    <trip id="passenger2" depart="10.00" from="E18" to="E17" type="passenger_passenger"/>
    <trip id="passenger3" depart="15.00" from="E22" to="-E15" type="passenger_passenger"/>
    <trip id="passenger4" depart="20.00" from="-E23" to="-E13" type="passenger_passenger"/>
    <trip id="passenger5" depart="25.00" from="-E18" to="E13" type="passenger_passenger"/>
    <trip id="passenger6" depart="30.00" from="-E13" to="-E17" type="passenger_passenger"/>
    <trip id="passenger7" depart="35.00" from="E16" to="E14" type="passenger_passenger"/>
    <trip id="passenger8" depart="40.00" from="-E18" to="E15" type="passenger_passenger"/>
    <trip id="passenger9" depart="45.00" from="E20" to="-E13" type="passenger_passenger"/>
    <trip id="passenger10" depart="50.00" from="E20" to="E17" type="passenger_passenger"/>
    <trip id="passenger11" depart="55.00" from="-E21" to="-E16" type="passenger_passenger"/>
    <trip id="passenger12" depart="60.00" from="E23" to="-E21" type="passenger_passenger"/>
    <trip id="passenger13" depart="65.00" from="-E15" to="-E15" type="passenger_passenger"/>
    <trip id="passenger14" depart="70.00" from="E21" to="E15" type="passenger_passenger"/>
    <trip id="passenger15" depart="75.00" from="E20" to="E18" type="passenger_passenger"/>
    <trip id="passenger16" depart="80.00" from="E13" to="E24" type="passenger_passenger"/>
    <trip id="passenger17" depart="85.00" from="-E22" to="E14" type="passenger_passenger"/>
    <trip id="passenger18" depart="90.00" from="E20" to="E15" type="passenger_passenger"/>
    <trip id="passenger19" depart="95.00" from="E21" to="E14" type="passenger_passenger"/>
    <trip id="passenger20" depart="100.00" from="E17" to="-E14" type="passenger_passenger"/>
    <trip id="passenger21" depart="105.00" from="-E18" to="-E19" type="passenger_passenger"/>
    <trip id="passenger22" depart="110.00" from="-E14" to="-E18" type="passenger_passenger"/>
    <trip id="passenger23" depart="115.00" from="-E15" to="-E19" type="passenger_passenger"/>
    <trip id="passenger24" depart="120.00" from="E16" to="-E21" type="passenger_passenger"/>
    <trip id="passenger25" depart="125.00" from="-E21" to="-E18" type="passenger_passenger"/>
    <trip id="passenger26" depart="130.00" from="-E19" to="E23" type="passenger_passenger"/>
    <trip id="passenger27" depart="135.00" from="E16" to="E15" type="passenger_passenger"/>
    <trip id="passenger28" depart="140.00" from="-E17" to="E18" type="passenger_passenger"/>
    <trip id="passenger29" depart="145.00" from="-E16" to="-E22" type="passenger_passenger"/>
    <trip id="passenger30" depart="150.00" from="E24" to="E16" type="passenger_passenger"/>
    <trip id="passenger31" depart="155.00" from="E14" to="E17" type="passenger_passenger"/>
    <trip id="passenger32" depart="160.00" from="E21" to="E19" type="passenger_passenger"/>
    <trip id="passenger33" depart="165.00" from="-E18" to="-E13" type="passenger_passenger"/>
    <trip id="passenger34" depart="170.00" from="-E20" to="-E19" type="passenger_passenger"/>
    <trip id="passenger35" depart="175.00" from="-E18" to="E23" type="passenger_passenger"/>
    <trip id="passenger36" depart="180.00" from="E22" to="-E20" type="passenger_passenger"/>
    <trip id="passenger37" depart="185.00" from="E16" to="-E22" type="passenger_passenger"/>
    <trip id="passenger38" depart="190.00" from="E22" to="-E24" type="passenger_passenger"/>
    <trip id="passenger39" depart="195.00" from="-E19" to="-E18" type="passenger_passenger"/>
    <trip id="passenger40" depart="200.00" from="E14" to="-E19" type="passenger_passenger"/>
    <trip id="passenger41" depart="205.00" from="E15" to="E22" type="passenger_passenger"/>
    <trip id="passenger42" depart="210.00" from="-E22" to="-E18" type="passenger_passenger"/>
    <trip id="passenger43" depart="215.00" from="E24" to="E13" type="passenger_passenger"/>
    <trip id="passenger44" depart="220.00" from="-E15" to="-E14" type="passenger_passenger"/>
    <trip id="passenger45" depart="225.00" from="-E15" to="E16" type="passenger_passenger"/>
    <trip id="passenger46" depart="230.00" from="E20" to="-E23" type="passenger_passenger"/>
    <trip id="passenger47" depart="235.00" from="-E14" to="-E22" type="passenger_passenger"/>
    <trip id="passenger48" depart="240.00" from="E24" to="E13" type="passenger_passenger"/>
    <trip id="passenger49" depart="245.00" from="E24" to="E21" type="passenger_passenger"/>
    <trip id="passenger50" depart="250.00" from="-E13" to="E18" type="passenger_passenger"/>
    <trip id="passenger51" depart="255.00" from="E17" to="E13" type="passenger_passenger"/>
    <trip id="passenger52" depart="260.00" from="-E19" to="E16" type="passenger_passenger"/>
    <trip id="passenger53" depart="265.00" from="-E15" to="-E23" type="passenger_passenger"/>
    <trip id="passenger54" depart="270.00" from="-E23" to="E23" type="passenger_passenger"/>
    <trip id="passenger55" depart="275.00" from="E22" to="-E19" type="passenger_passenger"/>
    <trip id="passenger56" depart="280.00" from="E13" to="-E17" type="passenger_passenger"/>
    <trip id="passenger57" depart="285.00" from="E22" to="E21" type="passenger_passenger"/>
    <trip id="passenger58" depart="290.00" from="-E20" to="E16" type="passenger_passenger"/>
    <trip id="passenger59" depart="295.00" from="E15" to="-E16" type="passenger_passenger"/>
    <trip id="passenger60" depart="300.00" from="E19" to="E13" type="passenger_passenger"/>
    <trip id="passenger61" depart="305.00" from="E19" to="E13" type="passenger_passenger"/>
    <trip id="passenger62" depart="310.00" from="-E13" to="-E20" type="passenger_passenger"/>
    <trip id="passenger63" depart="315.00" from="-E13" to="E23" type="passenger_passenger"/>
    <trip id="passenger64" depart="320.00" from="E22" to="E20" type="passenger_passenger"/>
    <trip id="passenger65" depart="325.00" from="-E20" to="-E14" type="passenger_passenger"/>
    <trip id="passenger66" depart="330.00" from="E22" to="E23" type="passenger_passenger"/>
    <trip id="passenger67" depart="335.00" from="-E15" to="-E24" type="passenger_passenger"/>
    <trip id="passenger68" depart="340.00" from="-E14" to="E19" type="passenger_passenger"/>
    <trip id="passenger69" depart="345.00" from="E19" to="-E16" type="passenger_passenger"/>
    <trip id="passenger70" depart="350.00" from="-E24" to="E14" type="passenger_passenger"/>
    <trip id="passenger71" depart="355.00" from="-E19" to="E21" type="passenger_passenger"/>
    <trip id="passenger72" depart="360.00" from="-E23" to="-E18" type="passenger_passenger"/>
    <trip id="passenger73" depart="365.00" from="E13" to="E18" type="passenger_passenger"/>
    <trip id="passenger74" depart="370.00" from="-E17" to="-E20" type="passenger_passenger"/>
    <trip id="passenger75" depart="375.00" from="E24" to="E16" type="passenger_passenger"/>
    <trip id="passenger76" depart="380.00" from="-E23" to="E13" type="passenger_passenger"/>
    <trip id="passenger77" depart="385.00" from="-E15" to="-E18" type="passenger_passenger"/>
    <trip id="passenger78" depart="390.00" from="-E21" to="E15" type="passenger_passenger"/>
    <trip id="passenger79" depart="395.00" from="-E18" to="-E18" type="passenger_passenger"/>
    <trip id="passenger80" depart="400.00" from="-E14" to="E16" type="passenger_passenger"/>
    <trip id="passenger81" depart="405.00" from="-E18" to="E22" type="passenger_passenger"/>
    <trip id="passenger82" depart="410.00" from="E21" to="-E14" type="passenger_passenger"/>
    <trip id="passenger83" depart="415.00" from="-E18" to="E17" type="passenger_passenger"/>
    <trip id="passenger84" depart="420.00" from="-E18" to="-E16" type="passenger_passenger"/>
    <trip id="passenger85" depart="425.00" from="E23" to="E14" type="passenger_passenger"/>
    <trip id="passenger86" depart="430.00" from="-E24" to="E19" type="passenger_passenger"/>
    <trip id="passenger87" depart="435.00" from="E20" to="-E17" type="passenger_passenger"/>
    <trip id="passenger88" depart="440.00" from="-E15" to="-E23" type="passenger_passenger"/>
    <trip id="passenger89" depart="445.00" from="-E23" to="-E24" type="passenger_passenger"/>
    <trip id="passenger90" depart="450.00" from="E18" to="E17" type="passenger_passenger"/>
    <trip id="passenger91" depart="455.00" from="E24" to="-E15" type="passenger_passenger"/>
    <trip id="passenger92" depart="460.00" from="-E22" to="-E21" type="passenger_passenger"/>
    <trip id="passenger93" depart="465.00" from="E21" to="-E18" type="passenger_passenger"/>
    <trip id="passenger94" depart="470.00" from="-E17" to="-E23" type="passenger_passenger"/>
    <trip id="passenger95" depart="475.00" from="-E23" to="-E19" type="passenger_passenger"/>
    <trip id="passenger96" depart="480.00" from="-E18" to="E23" type="passenger_passenger"/>
    <trip id="passenger97" depart="485.00" from="-E23" to="E21" type="passenger_passenger"/>
    <trip id="passenger98" depart="490.00" from="E14" to="-E14" type="passenger_passenger"/>
    <trip id="passenger99" depart="495.00" from="E24" to="E21" type="passenger_passenger"/>
    <trip id="passenger100" depart="500.00" from="E24" to="E23" type="passenger_passenger"/>
    <trip id="passenger101" depart="505.00" from="E21" to="-E16" type="passenger_passenger"/>
    <trip id="passenger102" depart="510.00" from="-E24" to="-E18" type="passenger_passenger"/>
    <trip id="passenger103" depart="515.00" from="-E22" to="-E14" type="passenger_passenger"/>
    <trip id="passenger104" depart="520.00" from="-E22" to="E24" type="passenger_passenger"/>
    <trip id="passenger105" depart="525.00" from="-E19" to="E19" type="passenger_passenger"/>
    <trip id="passenger106" depart="530.00" from="-E23" to="-E23" type="passenger_passenger"/>
    <trip id="passenger107" depart="535.00" from="E23" to="E24" type="passenger_passenger"/>
    <trip id="passenger108" depart="540.00" from="E14" to="E18" type="passenger_passenger"/>
    <trip id="passenger109" depart="545.00" from="-E16" to="-E20" type="passenger_passenger"/>
    <trip id="passenger110" depart="550.00" from="E24" to="E14" type="passenger_passenger"/>
    <trip id="passenger111" depart="555.00" from="E14" to="E18" type="passenger_passenger"/>
    <trip id="passenger112" depart="560.00" from="-E14" to="E15" type="passenger_passenger"/>
    <trip id="passenger113" depart="565.00" from="E13" to="E21" type="passenger_passenger"/>
    <trip id="passenger114" depart="570.00" from="-E16" to="E24" type="passenger_passenger"/>
    <trip id="passenger115" depart="575.00" from="-E14" to="-E17" type="passenger_passenger"/>
    <trip id="passenger116" depart="580.00" from="E15" to="E17" type="passenger_passenger"/>
    <trip id="passenger117" depart="585.00" from="-E18" to="-E15" type="passenger_passenger"/>
    <trip id="passenger118" depart="590.00" from="E22" to="-E18" type="passenger_passenger"/>
    <trip id="passenger119" depart="595.00" from="E15" to="E15" type="passenger_passenger"/>
    <trip id="passenger120" depart="600.00" from="-E23" to="E15" type="passenger_passenger"/>
    <trip id="passenger121" depart="605.00" from="E13" to="E23" type="passenger_passenger"/>
    <trip id="passenger122" depart="610.00" from="-E17" to="E18" type="passenger_passenger"/>
    <trip id="passenger123" depart="615.00" from="-E18" to="-E22" type="passenger_passenger"/>
    <trip id="passenger124" depart="620.00" from="E17" to="-E20" type="passenger_passenger"/>
    <trip id="passenger125" depart="625.00" from="-E20" to="E19" type="passenger_passenger"/>
    <trip id="passenger126" depart="630.00" from="-E14" to="-E23" type="passenger_passenger"/>
    <trip id="passenger127" depart="635.00" from="E24" to="E24" type="passenger_passenger"/>
    <trip id="passenger128" depart="640.00" from="-E14" to="-E18" type="passenger_passenger"/>
    <trip id="passenger129" depart="645.00" from="-E19" to="E23" type="passenger_passenger"/>
    <trip id="passenger130" depart="650.00" from="E22" to="E22" type="passenger_passenger"/>
    <trip id="passenger131" depart="655.00" from="-E21" to="-E16" type="passenger_passenger"/>
    <trip id="passenger132" depart="660.00" from="E21" to="E17" type="passenger_passenger"/>
    <trip id="passenger133" depart="665.00" from="E15" to="E24" type="passenger_passenger"/>
    <trip id="passenger134" depart="670.00" from="E16" to="-E13" type="passenger_passenger"/>
    <trip id="passenger135" depart="675.00" from="E20" to="-E20" type="passenger_passenger"/>
    <trip id="passenger136" depart="680.00" from="E16" to="E23" type="passenger_passenger"/>
    <trip id="passenger137" depart="685.00" from="-E16" to="-E15" type="passenger_passenger"/>
    <trip id="passenger138" depart="690.00" from="-E15" to="E14" type="passenger_passenger"/>
    <trip id="passenger139" depart="695.00" from="-E19" to="E15" type="passenger_passenger"/>
    <trip id="passenger140" depart="700.00" from="E18" to="-E17" type="passenger_passenger"/>
    <trip id="passenger141" depart="705.00" from="E16" to="-E19" type="passenger_passenger"/>
    <trip id="passenger142" depart="710.00" from="-E24" to="E22" type="passenger_passenger"/>
    <trip id="passenger143" depart="715.00" from="E21" to="-E15" type="passenger_passenger"/>
    <trip id="passenger144" depart="720.00" from="-E23" to="-E19" type="passenger_passenger"/>
    <trip id="passenger145" depart="725.00" from="-E13" to="E19" type="passenger_passenger"/>
    <trip id="passenger146" depart="730.00" from="E16" to="-E19" type="passenger_passenger"/>
    <trip id="passenger147" depart="735.00" from="E18" to="E14" type="passenger_passenger"/>
    <trip id="passenger148" depart="740.00" from="-E23" to="-E13" type="passenger_passenger"/>
    <trip id="passenger149" depart="745.00" from="-E14" to="E22" type="passenger_passenger"/>
    <trip id="passenger150" depart="750.00" from="E22" to="E14" type="passenger_passenger"/>
    <trip id="passenger151" depart="755.00" from="E21" to="E14" type="passenger_passenger"/>
    <trip id="passenger152" depart="760.00" from="-E16" to="-E16" type="passenger_passenger"/>
    <trip id="passenger153" depart="765.00" from="-E20" to="E22" type="passenger_passenger"/>
    <trip id="passenger154" depart="770.00" from="E20" to="E21" type="passenger_passenger"/>
    <trip id="passenger155" depart="775.00" from="E22" to="-E18" type="passenger_passenger"/>
    <trip id="passenger156" depart="780.00" from="-E18" to="-E15" type="passenger_passenger"/>
    <trip id="passenger157" depart="785.00" from="E19" to="E22" type="passenger_passenger"/>
    <trip id="passenger158" depart="790.00" from="-E22" to="E15" type="passenger_passenger"/>
    <trip id="passenger159" depart="795.00" from="-E16" to="E23" type="passenger_passenger"/>
    <trip id="passenger160" depart="800.00" from="E21" to="E24" type="passenger_passenger"/>
    <trip id="passenger161" depart="805.00" from="E20" to="E22" type="passenger_passenger"/>
    <trip id="passenger162" depart="810.00" from="-E13" to="E18" type="passenger_passenger"/>
    <trip id="passenger163" depart="815.00" from="-E20" to="E23" type="passenger_passenger"/>
    <trip id="passenger164" depart="820.00" from="E20" to="E21" type="passenger_passenger"/>
    <trip id="passenger165" depart="825.00" from="E20" to="-E19" type="passenger_passenger"/>
    <trip id="passenger166" depart="830.00" from="E19" to="-E15" type="passenger_passenger"/>
    <trip id="passenger167" depart="835.00" from="E21" to="E21" type="passenger_passenger"/>
    <trip id="passenger168" depart="840.00" from="-E18" to="E20" type="passenger_passenger"/>
    <trip id="passenger169" depart="845.00" from="-E24" to="-E20" type="passenger_passenger"/>
    <trip id="passenger170" depart="850.00" from="E20" to="-E18" type="passenger_passenger"/>
    <trip id="passenger171" depart="855.00" from="-E13" to="-E17" type="passenger_passenger"/>
    <trip id="passenger172" depart="860.00" from="-E20" to="E21" type="passenger_passenger"/>
    <trip id="passenger173" depart="865.00" from="E24" to="-E19" type="passenger_passenger"/>
    <trip id="passenger174" depart="870.00" from="E16" to="-E22" type="passenger_passenger"/>
    <trip id="passenger175" depart="875.00" from="E24" to="E13" type="passenger_passenger"/>
    <trip id="passenger176" depart="880.00" from="E23" to="-E15" type="passenger_passenger"/>
    <trip id="passenger177" depart="885.00" from="E24" to="-E17" type="passenger_passenger"/>
    <trip id="passenger178" depart="890.00" from="E24" to="-E19" type="passenger_passenger"/>
    <trip id="passenger179" depart="895.00" from="-E15" to="-E23" type="passenger_passenger"/>
    <trip id="passenger180" depart="900.00" from="E18" to="-E20" type="passenger_passenger"/>
    <trip id="passenger181" depart="905.00" from="E15" to="E13" type="passenger_passenger"/>
    <trip id="passenger182" depart="910.00" from="-E22" to="E14" type="passenger_passenger"/>
    <trip id="passenger183" depart="915.00" from="-E19" to="E18" type="passenger_passenger"/>
    <trip id="passenger184" depart="920.00" from="-E13" to="E23" type="passenger_passenger"/>
    <trip id="passenger185" depart="925.00" from="E13" to="E18" type="passenger_passenger"/>
    <trip id="passenger186" depart="930.00" from="E18" to="E17" type="passenger_passenger"/>
    <trip id="passenger187" depart="935.00" from="-E21" to="-E14" type="passenger_passenger"/>
    <trip id="passenger188" depart="940.00" from="E16" to="-E20" type="passenger_passenger"/>
    <trip id="passenger189" depart="945.00" from="-E20" to="E21" type="passenger_passenger"/>
    <trip id="passenger190" depart="950.00" from="E18" to="-E20" type="passenger_passenger"/>
    <trip id="passenger191" depart="955.00" from="-E20" to="-E22" type="passenger_passenger"/>
    <trip id="passenger192" depart="960.00" from="-E22" to="-E20" type="passenger_passenger"/>
    <trip id="passenger193" depart="965.00" from="-E16" to="-E23" type="passenger_passenger"/>
    <trip id="passenger194" depart="970.00" from="E23" to="E17" type="passenger_passenger"/>
    <trip id="passenger195" depart="975.00" from="E22" to="E15" type="passenger_passenger"/>
    <trip id="passenger196" depart="980.00" from="-E20" to="E14" type="passenger_passenger"/>
    <trip id="passenger197" depart="985.00" from="-E13" to="-E19" type="passenger_passenger"/>
    <trip id="passenger198" depart="990.00" from="-E23" to="E14" type="passenger_passenger"/>
    <trip id="passenger199" depart="995.00" from="E16" to="-E24" type="passenger_passenger"/>
    <trip id="passenger200" depart="1000.00" from="-E23" to="-E18" type="passenger_passenger"/>
    <trip id="passenger201" depart="1005.00" from="-E24" to="E22" type="passenger_passenger"/>
    <trip id="passenger202" depart="1010.00" from="E20" to="-E17" type="passenger_passenger"/>
    <trip id="passenger203" depart="1015.00" from="-E15" to="E13" type="passenger_passenger"/>
    <trip id="passenger204" depart="1020.00" from="E16" to="-E21" type="passenger_passenger"/>
    <trip id="passenger205" depart="1025.00" from="E20" to="E19" type="passenger_passenger"/>
    <trip id="passenger206" depart="1030.00" from="E17" to="-E18" type="passenger_passenger"/>
    <trip id="passenger207" depart="1035.00" from="-E17" to="-E13" type="passenger_passenger"/>
    <trip id="passenger208" depart="1040.00" from="-E18" to="-E24" type="passenger_passenger"/>
    <trip id="passenger209" depart="1045.00" from="E21" to="-E14" type="passenger_passenger"/>
    <trip id="passenger210" depart="1050.00" from="-E22" to="E16" type="passenger_passenger"/>
    <trip id="passenger211" depart="1055.00" from="-E17" to="E17" type="passenger_passenger"/>
    <trip id="passenger212" depart="1060.00" from="-E24" to="-E18" type="passenger_passenger"/>
    <trip id="passenger213" depart="1065.00" from="E16" to="-E13" type="passenger_passenger"/>
    <trip id="passenger214" depart="1070.00" from="E19" to="E19" type="passenger_passenger"/>
    <trip id="passenger215" depart="1075.00" from="-E15" to="-E23" type="passenger_passenger"/>
    <trip id="passenger216" depart="1080.00" from="-E17" to="E23" type="passenger_passenger"/>
    <trip id="passenger217" depart="1085.00" from="E13" to="-E14" type="passenger_passenger"/>
    <trip id="passenger218" depart="1090.00" from="-E18" to="E21" type="passenger_passenger"/>
    <trip id="passenger219" depart="1095.00" from="-E23" to="E20" type="passenger_passenger"/>
    <trip id="passenger220" depart="1100.00" from="E17" to="E24" type="passenger_passenger"/>
    <trip id="passenger221" depart="1105.00" from="E15" to="E23" type="passenger_passenger"/>
    <trip id="passenger222" depart="1110.00" from="E22" to="E15" type="passenger_passenger"/>
    <trip id="passenger223" depart="1115.00" from="E18" to="E13" type="passenger_passenger"/>
    <trip id="passenger224" depart="1120.00" from="E20" to="E14" type="passenger_passenger"/>
    <trip id="passenger225" depart="1125.00" from="E22" to="E18" type="passenger_passenger"/>
    <trip id="passenger226" depart="1130.00" from="-E24" to="-E19" type="passenger_passenger"/>
    <trip id="passenger227" depart="1135.00" from="-E18" to="E16" type="passenger_passenger"/>
    <trip id="passenger228" depart="1140.00" from="E19" to="E13" type="passenger_passenger"/>
    <trip id="passenger229" depart="1145.00" from="E16" to="-E19" type="passenger_passenger"/>
    <trip id="passenger230" depart="1150.00" from="-E14" to="-E19" type="passenger_passenger"/>
    <trip id="passenger231" depart="1155.00" from="-E19" to="-E20" type="passenger_passenger"/>
    <trip id="passenger232" depart="1160.00" from="E13" to="-E16" type="passenger_passenger"/>
    <trip id="passenger233" depart="1165.00" from="-E18" to="E17" type="passenger_passenger"/>
    <trip id="passenger234" depart="1170.00" from="E17" to="-E14" type="passenger_passenger"/>
    <trip id="passenger235" depart="1175.00" from="-E22" to="E14" type="passenger_passenger"/>
    <trip id="passenger236" depart="1180.00" from="-E22" to="-E17" type="passenger_passenger"/>
    <trip id="passenger237" depart="1185.00" from="-E23" to="E22" type="passenger_passenger"/>
    <trip id="passenger238" depart="1190.00" from="E15" to="E17" type="passenger_passenger"/>
    <trip id="passenger239" depart="1195.00" from="E21" to="E19" type="passenger_passenger"/>
    <trip id="passenger240" depart="1200.00" from="-E22" to="-E13" type="passenger_passenger"/>
    <trip id="passenger241" depart="1205.00" from="-E21" to="E19" type="passenger_passenger"/>
    <trip id="passenger242" depart="1210.00" from="E21" to="E23" type="passenger_passenger"/>
    <trip id="passenger243" depart="1215.00" from="-E23" to="E18" type="passenger_passenger"/>
    <trip id="passenger244" depart="1220.00" from="E14" to="E15" type="passenger_passenger"/>
    <trip id="passenger245" depart="1225.00" from="-E18" to="-E18" type="passenger_passenger"/>
    <trip id="passenger246" depart="1230.00" from="-E23" to="-E13" type="passenger_passenger"/>
    <trip id="passenger247" depart="1235.00" from="-E21" to="E17" type="passenger_passenger"/>
    <trip id="passenger248" depart="1240.00" from="-E22" to="-E16" type="passenger_passenger"/>
    <trip id="passenger249" depart="1245.00" from="-E24" to="-E16" type="passenger_passenger"/>
    <trip id="passenger250" depart="1250.00" from="E15" to="-E13" type="passenger_passenger"/>
    <trip id="passenger251" depart="1255.00" from="-E22" to="E14" type="passenger_passenger"/>
    <trip id="passenger252" depart="1260.00" from="-E13" to="E16" type="passenger_passenger"/>
    <trip id="passenger253" depart="1265.00" from="-E16" to="-E24" type="passenger_passenger"/>
    <trip id="passenger254" depart="1270.00" from="-E14" to="-E22" type="passenger_passenger"/>
    <trip id="passenger255" depart="1275.00" from="-E18" to="-E20" type="passenger_passenger"/>
    <trip id="passenger256" depart="1280.00" from="E19" to="-E22" type="passenger_passenger"/>
    <trip id="passenger257" depart="1285.00" from="E19" to="E20" type="passenger_passenger"/>
    <trip id="passenger258" depart="1290.00" from="-E19" to="-E14" type="passenger_passenger"/>
    <trip id="passenger259" depart="1295.00" from="-E13" to="E13" type="passenger_passenger"/>
    <trip id="passenger260" depart="1300.00" from="E24" to="-E21" type="passenger_passenger"/>
    <trip id="passenger261" depart="1305.00" from="E16" to="E19" type="passenger_passenger"/>
    <trip id="passenger262" depart="1310.00" from="E16" to="E19" type="passenger_passenger"/>
    <trip id="passenger263" depart="1315.00" from="E23" to="-E17" type="passenger_passenger"/>
    <trip id="passenger264" depart="1320.00" from="-E13" to="-E16" type="passenger_passenger"/>
    <trip id="passenger265" depart="1325.00" from="-E16" to="E17" type="passenger_passenger"/>
    <trip id="passenger266" depart="1330.00" from="E14" to="-E18" type="passenger_passenger"/>
    <trip id="passenger267" depart="1335.00" from="E17" to="E19" type="passenger_passenger"/>
    <trip id="passenger268" depart="1340.00" from="-E17" to="E15" type="passenger_passenger"/>
    <trip id="passenger269" depart="1345.00" from="E18" to="-E15" type="passenger_passenger"/>
    <trip id="passenger270" depart="1350.00" from="E20" to="E24" type="passenger_passenger"/>
    <trip id="passenger271" depart="1355.00" from="-E15" to="-E13" type="passenger_passenger"/>
    <trip id="passenger272" depart="1360.00" from="-E20" to="E17" type="passenger_passenger"/>
    <trip id="passenger273" depart="1365.00" from="E23" to="-E22" type="passenger_passenger"/>
    <trip id="passenger274" depart="1370.00" from="E18" to="-E14" type="passenger_passenger"/>
    <trip id="passenger275" depart="1375.00" from="E17" to="E16" type="passenger_passenger"/>
    <trip id="passenger276" depart="1380.00" from="-E15" to="E19" type="passenger_passenger"/>
    <trip id="passenger277" depart="1385.00" from="E21" to="E15" type="passenger_passenger"/>
    <trip id="passenger278" depart="1390.00" from="-E15" to="E24" type="passenger_passenger"/>
    <trip id="passenger279" depart="1395.00" from="E19" to="-E21" type="passenger_passenger"/>
    <trip id="passenger280" depart="1400.00" from="-E23" to="-E21" type="passenger_passenger"/>
    <trip id="passenger281" depart="1405.00" from="E13" to="-E21" type="passenger_passenger"/>
    <trip id="passenger282" depart="1410.00" from="E21" to="E20" type="passenger_passenger"/>
    <trip id="passenger283" depart="1415.00" from="-E15" to="E24" type="passenger_passenger"/>
    <trip id="passenger284" depart="1420.00" from="E16" to="E20" type="passenger_passenger"/>
    <trip id="passenger285" depart="1425.00" from="E17" to="-E23" type="passenger_passenger"/>
    <trip id="passenger286" depart="1430.00" from="E18" to="E24" type="passenger_passenger"/>
    <trip id="passenger287" depart="1435.00" from="-E19" to="E20" type="passenger_passenger"/>
    <trip id="passenger288" depart="1440.00" from="E13" to="-E24" type="passenger_passenger"/>
    <trip id="passenger289" depart="1445.00" from="-E23" to="E18" type="passenger_passenger"/>
    <trip id="passenger290" depart="1450.00" from="-E19" to="E21" type="passenger_passenger"/>
    <trip id="passenger291" depart="1455.00" from="E20" to="-E15" type="passenger_passenger"/>
    <trip id="passenger292" depart="1460.00" from="E22" to="-E18" type="passenger_passenger"/>
    <trip id="passenger293" depart="1465.00" from="-E24" to="E15" type="passenger_passenger"/>
    <trip id="passenger294" depart="1470.00" from="-E22" to="-E13" type="passenger_passenger"/>
    <trip id="passenger295" depart="1475.00" from="E21" to="-E17" type="passenger_passenger"/>
    <trip id="passenger296" depart="1480.00" from="-E18" to="E20" type="passenger_passenger"/>
    <trip id="passenger297" depart="1485.00" from="-E21" to="E22" type="passenger_passenger"/>
    <trip id="passenger298" depart="1490.00" from="E17" to="-E19" type="passenger_passenger"/>
    <trip id="passenger299" depart="1495.00" from="-E13" to="E23" type="passenger_passenger"/>
    <trip id="passenger300" depart="1500.00" from="-E15" to="E18" type="passenger_passenger"/>
    <trip id="passenger301" depart="1505.00" from="-E24" to="E19" type="passenger_passenger"/>
    <trip id="passenger302" depart="1510.00" from="E17" to="E16" type="passenger_passenger"/>
    <trip id="passenger303" depart="1515.00" from="-E24" to="E20" type="passenger_passenger"/>
    <trip id="passenger304" depart="1520.00" from="-E15" to="-E18" type="passenger_passenger"/>
    <trip id="passenger305" depart="1525.00" from="E17" to="-E20" type="passenger_passenger"/>
    <trip id="passenger306" depart="1530.00" from="E14" to="-E24" type="passenger_passenger"/>
    <trip id="passenger307" depart="1535.00" from="E13" to="-E23" type="passenger_passenger"/>
    <trip id="passenger308" depart="1540.00" from="E18" to="-E20" type="passenger_passenger"/>
    <trip id="passenger309" depart="1545.00" from="E17" to="-E19" type="passenger_passenger"/>
    <trip id="passenger310" depart="1550.00" from="-E19" to="-E15" type="passenger_passenger"/>
    <trip id="passenger311" depart="1555.00" from="-E17" to="-E15" type="passenger_passenger"/>