<?xml version="1.0" encoding="UTF-8"?>

<!-- generated on 2024-06-20 02:30:05 by Eclipse SUMO sumo Version 1.20.0
-->

<configuration xmlns:xsi="http://www.w3.org/2001/XMLSchema-instance" xsi:noNamespaceSchemaLocation="http://sumo.dlr.de/xsd/sumoConfiguration.xsd">

    <input>
        <net-file value="map6.net.xml"/>
        <route-files value="trips.xml"/>
    </input>

    <gui_only>
        <gui-settings-file value="view.xml"/>
    </gui_only>

</configuration>
