<?xml version="1.0" encoding="UTF-8"?>

<!-- generated on 2024-06-20 04:10:21 by Eclipse SUMO netedit Version 1.20.0
<configuration xmlns:xsi="http://www.w3.org/2001/XMLSchema-instance" xsi:noNamespaceSchemaLocation="http://sumo.dlr.de/xsd/neteditConfiguration.xsd">

    <input>
        <sumocfg-file value="F:\Project\Thesis\Thesis\Sumo\traci\map3\map3.sumocfg"/>
        <additional-files value=""/>
        <route-files value="F:\Project\Thesis\Thesis\Sumo\traci\map3\trips.trips.xml"/>
        <sumo-net-file value="F:\Project\Thesis\Thesis\Sumo\traci\map3\map3.net.xml"/>
    </input>

    <output>
        <output-file value="F:\Project\Thesis\Thesis\Sumo\traci\map3\map3.net.xml"/>
    </output>

    <processing>
        <geometry.min-radius.fix.railways value="false"/>
        <geometry.max-grade.fix value="false"/>
        <offset.disable-normalization value="true"/>
        <lefthand value="0"/>
    </processing>

    <junctions>
        <no-turnarounds value="true"/>
        <junctions.corner-detail value="5"/>
        <junctions.limit-turn-speed value="5.50"/>
        <rectangular-lane-cut value="0"/>
    </junctions>

    <pedestrian>
        <walkingareas value="0"/>
    </pedestrian>

    <netedit>
        <ignore.routeelements value="false"/>
    </netedit>

</configuration>
-->

<net version="1.20" junctionCornerDetail="5" limitTurnSpeed="5.50" xmlns:xsi="http://www.w3.org/2001/XMLSchema-instance" xsi:noNamespaceSchemaLocation="http://sumo.dlr.de/xsd/net_file.xsd">

    <location netOffset="0.00,0.00" convBoundary="-122.74,-245.87,346.37,84.95" origBoundary="-10000000000.00,-10000000000.00,10000000000.00,10000000000.00" projParameter="!"/>

    <edge id=":J0_0" function="internal">
        <lane id=":J0_0_0" index="0" speed="8.97" length="17.59" shape="-109.27,87.74 -114.01,87.03 -117.45,84.99 -119.58,81.60 -120.40,76.88"/>
        <lane id=":J0_0_1" index="1" speed="7.66" length="12.57" shape="-109.25,84.54 -112.64,84.03 -115.09,82.57 -116.61,80.16 -117.20,76.78"/>
    </edge>
    <edge id=":J0_2" function="internal">
        <lane id=":J0_2_0" index="0" speed="3.91" length="2.51" shape="-110.80,76.58 -110.68,77.26 -110.38,77.74 -109.89,78.04 -109.21,78.14"/>
        <lane id=":J0_2_1" index="1" speed="6.08" length="7.54" shape="-114.00,76.68 -113.65,78.71 -112.74,80.16 -111.26,81.03 -109.23,81.34"/>
    </edge>
    <edge id=":J1_0" function="internal">
        <lane id=":J1_0_0" index="0" speed="13.89" length="20.83" shape="130.37,89.09 109.54,89.00"/>
        <lane id=":J1_0_1" index="1" speed="13.89" length="20.83" shape="130.38,85.89 109.55,85.80"/>
    </edge>
    <edge id=":J1_2" function="internal">
        <lane id=":J1_2_0" index="0" speed="9.27" length="5.04" shape="130.38,85.89 125.39,85.16"/>
    </edge>
    <edge id=":J1_8" function="internal">
        <lane id=":J1_8_0" index="0" speed="9.27" length="14.34" shape="125.39,85.16 125.14,85.12 121.39,82.86 119.15,79.09 118.40,73.82"/>
    </edge>
    <edge id=":J1_3" function="internal">
        <lane id=":J1_3_0" index="0" speed="6.53" length="9.08" shape="124.80,73.82 125.15,76.30 126.20,78.07 127.95,79.13 130.40,79.49"/>
    </edge>
    <edge id=":J1_4" function="internal">
        <lane id=":J1_4_0" index="0" speed="9.25" length="19.40" shape="121.60,73.82 120.85,79.09 118.59,82.84 114.82,85.08 109.55,85.80"/>
    </edge>
    <edge id=":J1_5" function="internal">
        <lane id=":J1_5_0" index="0" speed="6.49" length="9.03" shape="109.59,79.40 112.04,79.06 113.80,78.02 114.85,76.27 115.20,73.82"/>
    </edge>
    <edge id=":J1_6" function="internal">
        <lane id=":J1_6_0" index="0" speed="13.89" length="20.81" shape="109.59,79.40 130.40,79.49"/>
        <lane id=":J1_6_1" index="1" speed="13.89" length="20.81" shape="109.57,82.60 130.39,82.69"/>
    </edge>
    <edge id=":J2_0" function="internal">
        <lane id=":J2_0_0" index="0" speed="8.96" length="18.10" shape="351.17,78.53 350.47,83.44 348.36,86.95 344.85,89.04 339.94,89.73"/>
        <lane id=":J2_0_1" index="1" speed="7.66" length="12.93" shape="347.97,78.53 347.47,82.04 345.96,84.54 343.46,86.04 339.95,86.53"/>
    </edge>
    <edge id=":J2_2" function="internal">
        <lane id=":J2_2_0" index="0" speed="3.90" length="2.59" shape="339.97,80.13 340.67,80.03 341.17,79.73 341.47,79.23 341.57,78.53"/>
        <lane id=":J2_2_1" index="1" speed="6.08" length="7.76" shape="339.96,83.33 342.06,83.04 343.57,82.14 344.47,80.64 344.77,78.53"/>
    </edge>
    <edge id=":J3_0" function="internal">
        <lane id=":J3_0_0" index="0" speed="6.59" length="9.18" shape="341.57,-77.79 341.21,-80.24 340.13,-81.99 338.33,-83.07 335.81,-83.45"/>
    </edge>
    <edge id=":J3_1" function="internal">
        <lane id=":J3_1_0" index="0" speed="13.89" length="20.80" shape="341.57,-77.79 341.57,-98.59"/>
        <lane id=":J3_1_1" index="1" speed="13.89" length="20.80" shape="344.77,-77.79 344.77,-98.59"/>
    </edge>
    <edge id=":J3_3" function="internal">
        <lane id=":J3_3_0" index="0" speed="13.89" length="20.80" shape="351.17,-98.59 351.17,-77.79"/>
        <lane id=":J3_3_1" index="1" speed="13.89" length="20.80" shape="347.97,-98.59 347.97,-77.79"/>
    </edge>
    <edge id=":J3_5" function="internal">
        <lane id=":J3_5_0" index="0" speed="9.24" length="5.00" shape="347.97,-98.59 347.26,-93.64"/>
    </edge>
    <edge id=":J3_8" function="internal">
        <lane id=":J3_8_0" index="0" speed="9.24" length="14.46" shape="347.26,-93.64 347.21,-93.30 344.94,-89.55 341.16,-87.33 335.86,-86.65"/>
    </edge>
    <edge id=":J3_6" function="internal">
        <lane id=":J3_6_0" index="0" speed="6.48" length="9.03" shape="335.95,-93.05 338.41,-93.37 340.16,-94.39 341.22,-96.14 341.57,-98.59"/>
    </edge>
    <edge id=":J3_7" function="internal">
        <lane id=":J3_7_0" index="0" speed="9.32" length="19.39" shape="335.90,-89.85 341.18,-89.03 344.95,-86.75 347.22,-83.00 347.97,-77.79"/>
    </edge>
    <edge id=":J4_0" function="internal">
        <lane id=":J4_0_0" index="0" speed="3.90" length="2.58" shape="341.57,-239.46 341.47,-240.16 341.17,-240.66 340.67,-240.96 339.97,-241.06"/>
        <lane id=":J4_0_1" index="1" speed="6.08" length="7.75" shape="344.77,-239.46 344.47,-241.56 343.57,-243.06 342.07,-243.96 339.96,-244.26"/>
    </edge>
    <edge id=":J4_2" function="internal">
        <lane id=":J4_2_0" index="0" speed="8.96" length="18.08" shape="339.95,-250.66 344.86,-249.97 348.37,-247.87 350.47,-244.37 351.17,-239.46"/>
        <lane id=":J4_2_1" index="1" speed="7.66" length="12.92" shape="339.96,-247.46 343.46,-246.96 345.97,-245.47 347.47,-242.96 347.97,-239.46"/>
    </edge>
    <edge id=":J5_0" function="internal">
        <lane id=":J5_0_0" index="0" speed="8.96" length="18.22" shape="-127.45,-238.63 -126.81,-243.59 -124.73,-247.13 -121.22,-249.26 -116.27,-249.98"/>
        <lane id=":J5_0_1" index="1" speed="7.65" length="13.01" shape="-124.25,-238.67 -123.79,-242.22 -122.31,-244.75 -119.80,-246.27 -116.27,-246.78"/>
    </edge>
    <edge id=":J5_2" function="internal">
        <lane id=":J5_2_0" index="0" speed="3.90" length="2.60" shape="-116.26,-240.38 -116.96,-240.28 -117.47,-239.97 -117.76,-239.47 -117.85,-238.76"/>
        <lane id=":J5_2_1" index="1" speed="6.08" length="7.81" shape="-116.26,-243.58 -118.38,-243.27 -119.89,-242.36 -120.78,-240.84 -121.05,-238.72"/>
    </edge>
    <edge id=":J6_0" function="internal">
        <lane id=":J6_0_0" index="0" speed="13.89" length="20.97" shape="-125.14,-78.80 -125.60,-99.79"/>
        <lane id=":J6_0_1" index="1" speed="13.89" length="20.97" shape="-121.94,-78.90 -122.40,-99.83"/>
    </edge>
    <edge id=":J6_2" function="internal">
        <lane id=":J6_2_0" index="0" speed="9.22" length="5.22" shape="-121.94,-78.90 -121.36,-84.08"/>
    </edge>
    <edge id=":J6_8" function="internal">
        <lane id=":J6_8_0" index="0" speed="9.22" length="14.31" shape="-121.36,-84.08 -121.34,-84.23 -119.17,-88.06 -115.43,-90.37 -110.12,-91.17"/>
    </edge>
    <edge id=":J6_3" function="internal">
        <lane id=":J6_3_0" index="0" speed="6.46" length="9.03" shape="-110.08,-84.77 -112.53,-84.40 -114.26,-83.33 -115.26,-81.56 -115.54,-79.09"/>
    </edge>
    <edge id=":J6_4" function="internal">
        <lane id=":J6_4_0" index="0" speed="9.30" length="19.46" shape="-110.10,-87.97 -115.42,-88.68 -119.24,-90.89 -121.57,-94.61 -122.40,-99.83"/>
    </edge>
    <edge id=":J6_5" function="internal">
        <lane id=":J6_5_0" index="0" speed="6.57" length="9.18" shape="-116.00,-99.92 -115.61,-97.47 -114.50,-95.73 -112.68,-94.70 -110.15,-94.37"/>
    </edge>
    <edge id=":J6_6" function="internal">
        <lane id=":J6_6_0" index="0" speed="13.89" length="20.86" shape="-116.00,-99.92 -115.54,-79.09"/>
        <lane id=":J6_6_1" index="1" speed="13.89" length="20.86" shape="-119.20,-99.87 -118.74,-79.00"/>
    </edge>
    <edge id=":J7_0" function="internal">
        <lane id=":J7_0_0" index="0" speed="6.50" length="9.07" shape="115.20,-80.83 114.85,-83.30 113.80,-85.06 112.04,-86.11 109.59,-86.44"/>
    </edge>
    <edge id=":J7_1" function="internal">
        <lane id=":J7_1_0" index="0" speed="9.24" length="19.46" shape="118.40,-80.83 119.16,-86.12 121.43,-89.87 125.21,-92.09 130.51,-92.77"/>
    </edge>
    <edge id=":J7_2" function="internal">
        <lane id=":J7_2_0" index="0" speed="6.48" length="9.03" shape="130.42,-86.37 127.96,-86.05 126.21,-85.03 125.15,-83.28 124.80,-80.83"/>
    </edge>
    <edge id=":J7_3" function="internal">
        <lane id=":J7_3_0" index="0" speed="13.89" length="20.87" shape="130.42,-86.37 109.59,-86.44"/>
        <lane id=":J7_3_1" index="1" speed="13.89" length="20.87" shape="130.47,-89.57 109.56,-89.64"/>
    </edge>
    <edge id=":J7_5" function="internal">
        <lane id=":J7_5_0" index="0" speed="13.89" length="21.01" shape="109.51,-96.04 130.56,-95.97"/>
        <lane id=":J7_5_1" index="1" speed="13.89" length="21.01" shape="109.54,-92.84 130.51,-92.77"/>
    </edge>
    <edge id=":J7_7" function="internal">
        <lane id=":J7_7_0" index="0" speed="9.25" length="5.21" shape="109.54,-92.84 114.70,-92.14"/>
    </edge>
    <edge id=":J7_8" function="internal">
        <lane id=":J7_8_0" index="0" speed="9.25" length="14.24" shape="114.70,-92.14 114.82,-92.12 118.58,-89.88 120.85,-86.12 121.60,-80.83"/>
    </edge>

    <edge id="-E0" from="J1" to="J0" priority="-1">
        <lane id="-E0_0" index="0" speed="13.89" length="218.80" shape="109.54,89.00 -109.27,87.74"/>
        <lane id="-E0_1" index="1" speed="13.89" length="218.80" shape="109.55,85.80 -109.25,84.54"/>
    </edge>
    <edge id="-E1" from="J2" to="J1" priority="-1">
        <lane id="-E1_0" index="0" speed="13.89" length="209.57" shape="339.94,89.73 130.37,89.09"/>
        <lane id="-E1_1" index="1" speed="13.89" length="209.57" shape="339.95,86.53 130.38,85.89"/>
    </edge>
    <edge id="-E2" from="J3" to="J2" priority="-1">
        <lane id="-E2_0" index="0" speed="13.89" length="156.32" shape="351.17,-77.79 351.17,78.53"/>
        <lane id="-E2_1" index="1" speed="13.89" length="156.32" shape="347.97,-77.79 347.97,78.53"/>
    </edge>
    <edge id="-E3" from="J4" to="J3" priority="-1">
        <lane id="-E3_0" index="0" speed="13.89" length="140.87" shape="351.17,-239.46 351.17,-98.59"/>
        <lane id="-E3_1" index="1" speed="13.89" length="140.87" shape="347.97,-239.46 347.97,-98.59"/>
    </edge>
    <edge id="-E4" from="J5" to="J4" priority="-1">
        <lane id="-E4_0" index="0" speed="13.89" length="456.22" shape="-116.27,-249.98 339.95,-250.66"/>
        <lane id="-E4_1" index="1" speed="13.89" length="456.22" shape="-116.27,-246.78 339.96,-247.46"/>
    </edge>
    <edge id="-E5" from="J6" to="J5" priority="-1">
        <lane id="-E5_0" index="0" speed="13.89" length="138.85" shape="-125.60,-99.79 -127.45,-238.63"/>
        <lane id="-E5_1" index="1" speed="13.89" length="138.85" shape="-122.40,-99.83 -124.25,-238.67"/>
    </edge>
    <edge id="-E6" from="J0" to="J6" priority="-1">
        <lane id="-E6_0" index="0" speed="13.89" length="155.75" shape="-120.40,76.88 -125.14,-78.80"/>
        <lane id="-E6_1" index="1" speed="13.89" length="155.75" shape="-117.20,76.78 -121.94,-78.90"/>
    </edge>
    <edge id="-E7" from="J7" to="J6" priority="-1">
        <lane id="-E7_0" index="0" speed="13.89" length="219.67" shape="109.59,-86.44 -110.08,-84.77"/>
        <lane id="-E7_1" index="1" speed="13.89" length="219.67" shape="109.56,-89.64 -110.10,-87.97"/>
    </edge>
    <edge id="-E8" from="J3" to="J7" priority="-1">
        <lane id="-E8_0" index="0" speed="13.89" length="205.41" shape="335.81,-83.45 130.42,-86.37"/>
        <lane id="-E8_1" index="1" speed="13.89" length="205.41" shape="335.86,-86.65 130.47,-89.57"/>
    </edge>
    <edge id="-E9" from="J7" to="J1" priority="-1">
        <lane id="-E9_0" index="0" speed="13.89" length="154.65" shape="124.80,-80.83 124.80,73.82"/>
        <lane id="-E9_1" index="1" speed="13.89" length="154.65" shape="121.60,-80.83 121.60,73.82"/>
    </edge>
    <edge id="E0" from="J0" to="J1" priority="-1">
        <lane id="E0_0" index="0" speed="13.89" length="218.80" shape="-109.21,78.14 109.59,79.40"/>
        <lane id="E0_1" index="1" speed="13.89" length="218.80" shape="-109.23,81.34 109.57,82.60"/>
    </edge>
    <edge id="E1" from="J1" to="J2" priority="-1">
        <lane id="E1_0" index="0" speed="13.89" length="209.57" shape="130.40,79.49 339.97,80.13"/>
        <lane id="E1_1" index="1" speed="13.89" length="209.57" shape="130.39,82.69 339.96,83.33"/>
    </edge>
    <edge id="E2" from="J2" to="J3" priority="-1">
        <lane id="E2_0" index="0" speed="13.89" length="156.32" shape="341.57,78.53 341.57,-77.79"/>
        <lane id="E2_1" index="1" speed="13.89" length="156.32" shape="344.77,78.53 344.77,-77.79"/>
    </edge>
    <edge id="E3" from="J3" to="J4" priority="-1">
        <lane id="E3_0" index="0" speed="13.89" length="140.87" shape="341.57,-98.59 341.57,-239.46"/>
        <lane id="E3_1" index="1" speed="13.89" length="140.87" shape="344.77,-98.59 344.77,-239.46"/>
    </edge>
    <edge id="E4" from="J4" to="J5" priority="-1">
        <lane id="E4_0" index="0" speed="13.89" length="456.22" shape="339.97,-241.06 -116.26,-240.38"/>
        <lane id="E4_1" index="1" speed="13.89" length="456.22" shape="339.96,-244.26 -116.26,-243.58"/>
    </edge>
    <edge id="E5" from="J5" to="J6" priority="-1">
        <lane id="E5_0" index="0" speed="13.89" length="138.85" shape="-117.85,-238.76 -116.00,-99.92"/>
        <lane id="E5_1" index="1" speed="13.89" length="138.85" shape="-121.05,-238.72 -119.20,-99.87"/>
    </edge>
    <edge id="E6" from="J6" to="J0" priority="-1">
        <lane id="E6_0" index="0" speed="13.89" length="155.75" shape="-115.54,-79.09 -110.80,76.58"/>
        <lane id="E6_1" index="1" speed="13.89" length="155.75" shape="-118.74,-79.00 -114.00,76.68"/>
    </edge>
    <edge id="E7" from="J6" to="J7" priority="-1">
        <lane id="E7_0" index="0" speed="13.89" length="219.67" shape="-110.15,-94.37 109.51,-96.04"/>
        <lane id="E7_1" index="1" speed="13.89" length="219.67" shape="-110.12,-91.17 109.54,-92.84"/>
    </edge>
    <edge id="E8" from="J7" to="J3" priority="-1">
        <lane id="E8_0" index="0" speed="13.89" length="205.41" shape="130.56,-95.97 335.95,-93.05"/>
        <lane id="E8_1" index="1" speed="13.89" length="205.41" shape="130.51,-92.77 335.90,-89.85"/>
    </edge>
    <edge id="E9" from="J1" to="J7" priority="-1">
        <lane id="E9_0" index="0" speed="13.89" length="154.65" shape="115.20,73.82 115.20,-80.83"/>
        <lane id="E9_1" index="1" speed="13.89" length="154.65" shape="118.40,73.82 118.40,-80.83"/>
    </edge>

    <tlLogic id="J7" type="static" programID="0" offset="0">
        <phase duration="32" state="rrGGGGGg"/>
        <phase duration="3"  state="rrryyyyy"/>
        <phase duration="32" state="GGrrrrrr"/>
        <phase duration="3"  state="yyrrrrrr"/>
    </tlLogic>

    <junction id="J0" type="priority" x="-115.41" y="82.90" incLanes="-E0_0 -E0_1 E6_0 E6_1" intLanes=":J0_0_0 :J0_0_1 :J0_2_0 :J0_2_1" shape="-109.27,89.34 -109.20,76.54 -121.99,76.93 -121.54,80.70 -120.41,83.79 -118.63,86.20 -116.17,87.92 -113.06,88.97">
        <request index="0" response="0000" foes="0000" cont="0"/>
        <request index="1" response="0000" foes="0000" cont="0"/>
        <request index="2" response="0000" foes="0000" cont="0"/>
        <request index="3" response="0000" foes="0000" cont="0"/>
    </junction>
    <junction id="J1" type="priority" x="120.00" y="84.26" incLanes="-E1_0 -E1_1 -E9_0 -E9_1 E0_0 E0_1" intLanes=":J1_0_0 :J1_0_1 :J1_8_0 :J1_3_0 :J1_4_0 :J1_5_0 :J1_6_0 :J1_6_1" shape="130.36,90.69 130.40,77.89 128.18,77.43 127.40,76.87 126.84,76.08 126.51,75.06 126.40,73.82 113.60,73.82 113.16,76.04 112.60,76.82 111.82,77.37 110.82,77.70 109.60,77.80 109.53,90.60">
        <request index="0" response="00000000" foes="00010000" cont="0"/>
        <request index="1" response="00000000" foes="00010000" cont="0"/>
        <request index="2" response="11000000" foes="11010000" cont="1"/>
        <request index="3" response="11000000" foes="11000000" cont="0"/>
        <request index="4" response="11000111" foes="11000111" cont="0"/>
        <request index="5" response="00000000" foes="00000000" cont="0"/>
        <request index="6" response="00000000" foes="00011100" cont="0"/>
        <request index="7" response="00000000" foes="00011100" cont="0"/>
    </junction>
    <junction id="J2" type="priority" x="346.37" y="84.95" incLanes="-E2_0 -E2_1 E1_0 E1_1" intLanes=":J2_0_0 :J2_0_1 :J2_2_0 :J2_2_1" shape="352.77,78.53 339.97,78.53 339.93,91.33 343.85,90.99 347.06,89.93 349.56,88.15 351.34,85.66 352.41,82.45">
        <request index="0" response="0000" foes="0000" cont="0"/>
        <request index="1" response="0000" foes="0000" cont="0"/>
        <request index="2" response="0000" foes="0000" cont="0"/>
        <request index="3" response="0000" foes="0000" cont="0"/>
    </junction>
    <junction id="J3" type="priority" x="346.37" y="-88.10" incLanes="E2_0 E2_1 -E3_0 -E3_1 E8_0 E8_1" intLanes=":J3_0_0 :J3_1_0 :J3_1_1 :J3_3_0 :J3_3_1 :J3_8_0 :J3_6_0 :J3_7_0" shape="339.97,-77.79 352.77,-77.79 352.77,-98.59 339.97,-98.59 339.53,-96.38 338.97,-95.61 338.19,-95.06 337.19,-94.74 335.97,-94.65 335.79,-81.85 338.11,-81.37 338.92,-80.81 339.51,-80.02 339.85,-79.01">
        <request index="0" response="00000000" foes="00000000" cont="0"/>
        <request index="1" response="00000000" foes="11100000" cont="0"/>
        <request index="2" response="00000000" foes="11100000" cont="0"/>
        <request index="3" response="00000000" foes="10000000" cont="0"/>
        <request index="4" response="00000000" foes="10000000" cont="0"/>
        <request index="5" response="00000110" foes="10000110" cont="1"/>
        <request index="6" response="00000110" foes="00000110" cont="0"/>
        <request index="7" response="00111110" foes="00111110" cont="0"/>
    </junction>
    <junction id="J4" type="priority" x="346.37" y="-245.87" incLanes="E3_0 E3_1 -E4_0 -E4_1" intLanes=":J4_0_0 :J4_0_1 :J4_2_0 :J4_2_1" shape="339.97,-239.46 352.77,-239.46 352.41,-243.38 351.35,-246.58 349.57,-249.07 347.07,-250.85 343.87,-251.91 339.95,-252.26">
        <request index="0" response="0000" foes="0000" cont="0"/>
        <request index="1" response="0000" foes="0000" cont="0"/>
        <request index="2" response="0000" foes="0000" cont="0"/>
        <request index="3" response="0000" foes="0000" cont="0"/>
    </junction>
    <junction id="J5" type="priority" x="-122.74" y="-245.17" incLanes="-E5_0 -E5_1 E4_0 E4_1" intLanes=":J5_0_0 :J5_0_1 :J5_2_0 :J5_2_1" shape="-129.05,-238.61 -116.25,-238.78 -116.27,-251.58 -120.23,-251.21 -123.45,-250.13 -125.94,-248.33 -127.71,-245.81 -128.75,-242.57">
        <request index="0" response="0000" foes="0000" cont="0"/>
        <request index="1" response="0000" foes="0000" cont="0"/>
        <request index="2" response="0000" foes="0000" cont="0"/>
        <request index="3" response="0000" foes="0000" cont="0"/>
    </junction>
    <junction id="J6" type="priority" x="-120.66" y="-89.49" incLanes="-E6_0 -E6_1 -E7_0 -E7_1 E5_0 E5_1" intLanes=":J6_0_0 :J6_0_1 :J6_8_0 :J6_3_0 :J6_4_0 :J6_5_0 :J6_6_0 :J6_6_1" shape="-126.74,-78.75 -113.94,-79.14 -113.57,-81.37 -113.03,-82.15 -112.27,-82.71 -111.28,-83.05 -110.06,-83.17 -110.16,-95.97 -112.49,-96.40 -113.31,-96.95 -113.90,-97.72 -114.27,-98.72 -114.40,-99.94 -127.20,-99.77">
        <request index="0" response="00000000" foes="00010000" cont="0"/>
        <request index="1" response="00000000" foes="00010000" cont="0"/>
        <request index="2" response="11000000" foes="11010000" cont="1"/>
        <request index="3" response="11000000" foes="11000000" cont="0"/>
        <request index="4" response="11000111" foes="11000111" cont="0"/>
        <request index="5" response="00000000" foes="00000000" cont="0"/>
        <request index="6" response="00000000" foes="00011100" cont="0"/>
        <request index="7" response="00000000" foes="00011100" cont="0"/>
    </junction>
    <junction id="J7" type="traffic_light" x="120.00" y="-91.32" incLanes="E9_0 E9_1 -E8_0 -E8_1 E7_0 E7_1" intLanes=":J7_0_0 :J7_1_0 :J7_2_0 :J7_3_0 :J7_3_1 :J7_5_0 :J7_5_1 :J7_8_0" shape="113.60,-80.83 126.40,-80.83 126.84,-83.04 127.40,-83.81 128.18,-84.36 129.18,-84.68 130.40,-84.77 130.58,-97.57 109.50,-97.64 109.60,-84.84 111.82,-84.41 112.60,-83.85 113.16,-83.07 113.49,-82.06">
        <request index="0" response="00011000" foes="00011000" cont="0"/>
        <request index="1" response="11111000" foes="11111000" cont="0"/>
        <request index="2" response="00000000" foes="00000000" cont="0"/>
        <request index="3" response="00000000" foes="10000011" cont="0"/>
        <request index="4" response="00000000" foes="10000011" cont="0"/>
        <request index="5" response="00000000" foes="00000010" cont="0"/>
        <request index="6" response="00000000" foes="00000010" cont="0"/>
        <request index="7" response="00011000" foes="00011010" cont="1"/>
    </junction>

    <junction id=":J1_8_0" type="internal" x="125.39" y="85.16" incLanes=":J1_2_0 E0_0 E0_1" intLanes=":J1_4_0 :J1_6_0 :J1_6_1"/>
    <junction id=":J3_8_0" type="internal" x="347.26" y="-93.64" incLanes=":J3_5_0 E2_0 E2_1" intLanes=":J3_1_0 :J3_1_1 :J3_7_0"/>
    <junction id=":J6_8_0" type="internal" x="-121.36" y="-84.08" incLanes=":J6_2_0 E5_0 E5_1" intLanes=":J6_4_0 :J6_6_0 :J6_6_1"/>
    <junction id=":J7_8_0" type="internal" x="114.70" y="-92.14" incLanes=":J7_7_0 -E8_0 -E8_1" intLanes=":J7_1_0 :J7_3_0 :J7_3_1"/>

    <connection from="-E0" to="-E6" fromLane="0" toLane="0" via=":J0_0_0" dir="l" state="M"/>
    <connection from="-E0" to="-E6" fromLane="1" toLane="1" via=":J0_0_1" dir="l" state="M"/>
    <connection from="-E1" to="-E0" fromLane="0" toLane="0" via=":J1_0_0" dir="s" state="M"/>
    <connection from="-E1" to="-E0" fromLane="1" toLane="1" via=":J1_0_1" dir="s" state="M"/>
    <connection from="-E1" to="E9" fromLane="1" toLane="1" via=":J1_2_0" dir="l" state="m"/>
    <connection from="-E2" to="-E1" fromLane="0" toLane="0" via=":J2_0_0" dir="l" state="M"/>
    <connection from="-E2" to="-E1" fromLane="1" toLane="1" via=":J2_0_1" dir="l" state="M"/>
    <connection from="-E3" to="-E2" fromLane="0" toLane="0" via=":J3_3_0" dir="s" state="M"/>
    <connection from="-E3" to="-E2" fromLane="1" toLane="1" via=":J3_3_1" dir="s" state="M"/>
    <connection from="-E3" to="-E8" fromLane="1" toLane="1" via=":J3_5_0" dir="l" state="m"/>
    <connection from="-E4" to="-E3" fromLane="0" toLane="0" via=":J4_2_0" dir="l" state="M"/>
    <connection from="-E4" to="-E3" fromLane="1" toLane="1" via=":J4_2_1" dir="l" state="M"/>
    <connection from="-E5" to="-E4" fromLane="0" toLane="0" via=":J5_0_0" dir="l" state="M"/>
    <connection from="-E5" to="-E4" fromLane="1" toLane="1" via=":J5_0_1" dir="l" state="M"/>
    <connection from="-E6" to="-E5" fromLane="0" toLane="0" via=":J6_0_0" dir="s" state="M"/>
    <connection from="-E6" to="-E5" fromLane="1" toLane="1" via=":J6_0_1" dir="s" state="M"/>
    <connection from="-E6" to="E7" fromLane="1" toLane="1" via=":J6_2_0" dir="l" state="m"/>
    <connection from="-E7" to="E6" fromLane="0" toLane="0" via=":J6_3_0" dir="r" state="m"/>
    <connection from="-E7" to="-E5" fromLane="1" toLane="1" via=":J6_4_0" dir="l" state="m"/>
    <connection from="-E8" to="-E9" fromLane="0" toLane="0" via=":J7_2_0" tl="J7" linkIndex="2" dir="r" state="O"/>
    <connection from="-E8" to="-E7" fromLane="0" toLane="0" via=":J7_3_0" tl="J7" linkIndex="3" dir="s" state="O"/>
    <connection from="-E8" to="-E7" fromLane="1" toLane="1" via=":J7_3_1" tl="J7" linkIndex="4" dir="s" state="O"/>
    <connection from="-E9" to="E1" fromLane="0" toLane="0" via=":J1_3_0" dir="r" state="m"/>
    <connection from="-E9" to="-E0" fromLane="1" toLane="1" via=":J1_4_0" dir="l" state="m"/>
    <connection from="E0" to="E9" fromLane="0" toLane="0" via=":J1_5_0" dir="r" state="M"/>
    <connection from="E0" to="E1" fromLane="0" toLane="0" via=":J1_6_0" dir="s" state="M"/>
    <connection from="E0" to="E1" fromLane="1" toLane="1" via=":J1_6_1" dir="s" state="M"/>
    <connection from="E1" to="E2" fromLane="0" toLane="0" via=":J2_2_0" dir="r" state="M"/>
    <connection from="E1" to="E2" fromLane="1" toLane="1" via=":J2_2_1" dir="r" state="M"/>
    <connection from="E2" to="-E8" fromLane="0" toLane="0" via=":J3_0_0" dir="r" state="M"/>
    <connection from="E2" to="E3" fromLane="0" toLane="0" via=":J3_1_0" dir="s" state="M"/>
    <connection from="E2" to="E3" fromLane="1" toLane="1" via=":J3_1_1" dir="s" state="M"/>
    <connection from="E3" to="E4" fromLane="0" toLane="0" via=":J4_0_0" dir="r" state="M"/>
    <connection from="E3" to="E4" fromLane="1" toLane="1" via=":J4_0_1" dir="r" state="M"/>
    <connection from="E4" to="E5" fromLane="0" toLane="0" via=":J5_2_0" dir="r" state="M"/>
    <connection from="E4" to="E5" fromLane="1" toLane="1" via=":J5_2_1" dir="r" state="M"/>
    <connection from="E5" to="E7" fromLane="0" toLane="0" via=":J6_5_0" dir="r" state="M"/>
    <connection from="E5" to="E6" fromLane="0" toLane="0" via=":J6_6_0" dir="s" state="M"/>
    <connection from="E5" to="E6" fromLane="1" toLane="1" via=":J6_6_1" dir="s" state="M"/>
    <connection from="E6" to="E0" fromLane="0" toLane="0" via=":J0_2_0" dir="r" state="M"/>
    <connection from="E6" to="E0" fromLane="1" toLane="1" via=":J0_2_1" dir="r" state="M"/>
    <connection from="E7" to="E8" fromLane="0" toLane="0" via=":J7_5_0" tl="J7" linkIndex="5" dir="s" state="O"/>
    <connection from="E7" to="E8" fromLane="1" toLane="1" via=":J7_5_1" tl="J7" linkIndex="6" dir="s" state="O"/>
    <connection from="E7" to="-E9" fromLane="1" toLane="1" via=":J7_7_0" tl="J7" linkIndex="7" dir="l" state="o"/>
    <connection from="E8" to="E3" fromLane="0" toLane="0" via=":J3_6_0" dir="r" state="m"/>
    <connection from="E8" to="-E2" fromLane="1" toLane="1" via=":J3_7_0" dir="l" state="m"/>
    <connection from="E9" to="-E7" fromLane="0" toLane="0" via=":J7_0_0" tl="J7" linkIndex="0" dir="r" state="o"/>
    <connection from="E9" to="E8" fromLane="1" toLane="1" via=":J7_1_0" tl="J7" linkIndex="1" dir="l" state="o"/>

    <connection from=":J0_0" to="-E6" fromLane="0" toLane="0" dir="l" state="M"/>
    <connection from=":J0_0" to="-E6" fromLane="1" toLane="1" dir="l" state="M"/>
    <connection from=":J0_2" to="E0" fromLane="0" toLane="0" dir="r" state="M"/>
    <connection from=":J0_2" to="E0" fromLane="1" toLane="1" dir="r" state="M"/>
    <connection from=":J1_0" to="-E0" fromLane="0" toLane="0" dir="s" state="M"/>
    <connection from=":J1_0" to="-E0" fromLane="1" toLane="1" dir="s" state="M"/>
    <connection from=":J1_2" to="E9" fromLane="0" toLane="1" via=":J1_8_0" dir="l" state="m"/>
    <connection from=":J1_8" to="E9" fromLane="0" toLane="1" dir="l" state="M"/>
    <connection from=":J1_3" to="E1" fromLane="0" toLane="0" dir="r" state="M"/>
    <connection from=":J1_4" to="-E0" fromLane="0" toLane="1" dir="l" state="M"/>
    <connection from=":J1_5" to="E9" fromLane="0" toLane="0" dir="r" state="M"/>
    <connection from=":J1_6" to="E1" fromLane="0" toLane="0" dir="s" state="M"/>
    <connection from=":J1_6" to="E1" fromLane="1" toLane="1" dir="s" state="M"/>
    <connection from=":J2_0" to="-E1" fromLane="0" toLane="0" dir="l" state="M"/>
    <connection from=":J2_0" to="-E1" fromLane="1" toLane="1" dir="l" state="M"/>
    <connection from=":J2_2" to="E2" fromLane="0" toLane="0" dir="r" state="M"/>
    <connection from=":J2_2" to="E2" fromLane="1" toLane="1" dir="r" state="M"/>
    <connection from=":J3_0" to="-E8" fromLane="0" toLane="0" dir="r" state="M"/>
    <connection from=":J3_1" to="E3" fromLane="0" toLane="0" dir="s" state="M"/>
    <connection from=":J3_1" to="E3" fromLane="1" toLane="1" dir="s" state="M"/>
    <connection from=":J3_3" to="-E2" fromLane="0" toLane="0" dir="s" state="M"/>
    <connection from=":J3_3" to="-E2" fromLane="1" toLane="1" dir="s" state="M"/>
    <connection from=":J3_5" to="-E8" fromLane="0" toLane="1" via=":J3_8_0" dir="l" state="m"/>
    <connection from=":J3_8" to="-E8" fromLane="0" toLane="1" dir="l" state="M"/>
    <connection from=":J3_6" to="E3" fromLane="0" toLane="0" dir="r" state="M"/>
    <connection from=":J3_7" to="-E2" fromLane="0" toLane="1" dir="l" state="M"/>
    <connection from=":J4_0" to="E4" fromLane="0" toLane="0" dir="r" state="M"/>
    <connection from=":J4_0" to="E4" fromLane="1" toLane="1" dir="r" state="M"/>
    <connection from=":J4_2" to="-E3" fromLane="0" toLane="0" dir="l" state="M"/>
    <connection from=":J4_2" to="-E3" fromLane="1" toLane="1" dir="l" state="M"/>
    <connection from=":J5_0" to="-E4" fromLane="0" toLane="0" dir="l" state="M"/>
    <connection from=":J5_0" to="-E4" fromLane="1" toLane="1" dir="l" state="M"/>