<?xml version="1.0" encoding="UTF-8"?>

<!-- generated on 2024-06-20 01:35:52.111160 by randomTrips.py v1_20_0+0002-343658e7c64
<configuration>
    <net-file value="F:\Project\Thesis\Thesis\Sumo\traci\map4\map4.net.xml"/>
    <output-trip-file value="F:\Project\Thesis\Thesis\Sumo\traci\map4\bus.trips.xml"/>
    <prefix value="bus"/>
    <vehicle-class value="bus"/>
    <insertion-rate value="720.0"/>
</configuration>
-->

<routes xmlns:xsi="http://www.w3.org/2001/XMLSchema-instance" xsi:noNamespaceSchemaLocation="http://sumo.dlr.de/xsd/routes_file.xsd">
    <vType id="bus_bus" vClass="bus"/>
    <trip id="bus0" depart="0.00" from="E11" to="-E0" type="bus_bus"/>
    <trip id="bus1" depart="5.00" from="-E4" to="-E3" type="bus_bus"/>
    <trip id="bus2" depart="10.00" from="E3" to="E2" type="bus_bus"/>
    <trip id="bus3" depart="15.00" from="E7" to="-E10" type="bus_bus"/>
    <trip id="bus4" depart="20.00" from="-E8" to="-E0" type="bus_bus"/>
    <trip id="bus5" depart="25.00" from="-E3" to="E0" type="bus_bus"/>
    <trip id="bus6" depart="30.00" from="-E0" to="-E2" type="bus_bus"/>
    <trip id="bus7" depart="35.00" from="E11" to="E1" type="bus_bus"/>
    <trip id="bus8" depart="40.00" from="-E3" to="E10" type="bus_bus"/>
    <trip id="bus9" depart="45.00" from="E5" to="-E0" type="bus_bus"/>
    <trip id="bus10" depart="50.00" from="E5" to="E2" type="bus_bus"/>
    <trip id="bus11" depart="55.00" from="-E6" to="-E11" type="bus_bus"/>
    <trip id="bus12" depart="60.00" from="E8" to="-E6" type="bus_bus"/>
    <trip id="bus13" depart="65.00" from="-E10" to="-E10" type="bus_bus"/>
    <trip id="bus14" depart="70.00" from="E6" to="E10" type="bus_bus"/>
    <trip id="bus15" depart="75.00" from="E5" to="E3" type="bus_bus"/>
    <trip id="bus16" depart="80.00" from="E0" to="E9" type="bus_bus"/>
    <trip id="bus17" depart="85.00" from="-E7" to="E1" type="bus_bus"/>
    <trip id="bus18" depart="90.00" from="E5" to="E10" type="bus_bus"/>
    <trip id="bus19" depart="95.00" from="E6" to="E1" type="bus_bus"/>
    <trip id="bus20" depart="100.00" from="E2" to="-E1" type="bus_bus"/>
    <trip id="bus21" depart="105.00" from="-E3" to="-E4" type="bus_bus"/>
    <trip id="bus22" depart="110.00" from="-E1" to="-E3" type="bus_bus"/>
    <trip id="bus23" depart="115.00" from="-E10" to="-E4" type="bus_bus"/>
    <trip id="bus24" depart="120.00" from="E11" to="-E6" type="bus_bus"/>
    <trip id="bus25" depart="125.00" from="-E6" to="-E3" type="bus_bus"/>
    <trip id="bus26" depart="130.00" from="-E4" to="E8" type="bus_bus"/>
    <trip id="bus27" depart="135.00" from="E11" to="E10" type="bus_bus"/>
    <trip id="bus28" depart="140.00" from="-E2" to="E3" type="bus_bus"/>
    <trip id="bus29" depart="145.00" from="-E11" to="-E7" type="bus_bus"/>
    <trip id="bus30" depart="150.00" from="E9" to="E11" type="bus_bus"/>
    <trip id="bus31" depart="155.00" from="E1" to="E2" type="bus_bus"/>
    <trip id="bus32" depart="160.00" from="E6" to="E4" type="bus_bus"/>
    <trip id="bus33" depart="165.00" from="-E3" to="-E0" type="bus_bus"/>
    <trip id="bus34" depart="170.00" from="-E5" to="-E4" type="bus_bus"/>
    <trip id="bus35" depart="175.00" from="-E3" to="E8" type="bus_bus"/>
    <trip id="bus36" depart="180.00" from="E7" to="-E5" type="bus_bus"/>
    <trip id="bus37" depart="185.00" from="E11" to="-E7" type="bus_bus"/>
    <trip id="bus38" depart="190.00" from="E7" to="-E9" type="bus_bus"/>
    <trip id="bus39" depart="195.00" from="-E4" to="-E3" type="bus_bus"/>
    <trip id="bus40" depart="200.00" from="E1" to="-E4" type="bus_bus"/>
    <trip id="bus41" depart="205.00" from="E10" to="E7" type="bus_bus"/>
    <trip id="bus42" depart="210.00" from="-E7" to="-E3" type="bus_bus"/>
    <trip id="bus43" depart="215.00" from="E9" to="E0" type="bus_bus"/>
    <trip id="bus44" depart="220.00" from="-E10" to="-E1" type="bus_bus"/>
    <trip id="bus45" depart="225.00" from="-E10" to="E11" type="bus_bus"/>
    <trip id="bus46" depart="230.00" from="E5" to="-E8" type="bus_bus"/>
    <trip id="bus47" depart="235.00" from="-E1" to="-E7" type="bus_bus"/>
    <trip id="bus48" depart="240.00" from="E9" to="E0" type="bus_bus"/>
    <trip id="bus49" depart="245.00" from="E9" to="E6" type="bus_bus"/>
    <trip id="bus50" depart="250.00" from="-E0" to="E3" type="bus_bus"/>
    <trip id="bus51" depart="255.00" from="E2" to="E0" type="bus_bus"/>
    <trip id="bus52" depart="260.00" from="-E4" to="E11" type="bus_bus"/>
    <trip id="bus53" depart="265.00" from="-E10" to="-E8" type="bus_bus"/>
    <trip id="bus54" depart="270.00" from="-E8" to="E8" type="bus_bus"/>
    <trip id="bus55" depart="275.00" from="E7" to="-E4" type="bus_bus"/>
    <trip id="bus56" depart="280.00" from="E0" to="-E2" type="bus_bus"/>
    <trip id="bus57" depart="285.00" from="E7" to="E6" type="bus_bus"/>
    <trip id="bus58" depart="290.00" from="-E5" to="E11" type="bus_bus"/>
    <trip id="bus59" depart="295.00" from="E10" to="-E11" type="bus_bus"/>
    <trip id="bus60" depart="300.00" from="E4" to="E0" type="bus_bus"/>
    <trip id="bus61" depart="305.00" from="E4" to="E0" type="bus_bus"/>
    <trip id="bus62" depart="310.00" from="-E0" to="-E5" type="bus_bus"/>
    <trip id="bus63" depart="315.00" from="-E0" to="E8" type="bus_bus"/>
    <trip id="bus64" depart="320.00" from="E7" to="E5" type="bus_bus"/>
    <trip id="bus65" depart="325.00" from="-E5" to="-E1" type="bus_bus"/>
    <trip id="bus66" depart="330.00" from="E7" to="E8" type="bus_bus"/>
    <trip id="bus67" depart="335.00" from="-E10" to="-E9" type="bus_bus"/>
    <trip id="bus68" depart="340.00" from="-E1" to="E4" type="bus_bus"/>
    <trip id="bus69" depart="345.00" from="E4" to="-E11" type="bus_bus"/>
    <trip id="bus70" depart="350.00" from="-E9" to="E1" type="bus_bus"/>
    <trip id="bus71" depart="355.00" from="-E4" to="E6" type="bus_bus"/>
    <trip id="bus72" depart="360.00" from="-E8" to="-E3" type="bus_bus"/>
    <trip id="bus73" depart="365.00" from="E0" to="E3" type="bus_bus"/>
    <trip id="bus74" depart="370.00" from="-E2" to="-E5" type="bus_bus"/>
    <trip id="bus75" depart="375.00" from="E9" to="E11" type="bus_bus"/>
    <trip id="bus76" depart="380.00" from="-E8" to="E0" type="bus_bus"/>
    <trip id="bus77" depart="385.00" from="-E10" to="-E3" type="bus_bus"/>
    <trip id="bus78" depart="390.00" from="-E6" to="E10" type="bus_bus"/>
    <trip id="bus79" depart="395.00" from="-E3" to="-E3" type="bus_bus"/>
    <trip id="bus80" depart="400.00" from="-E1" to="E11" type="bus_bus"/>
    <trip id="bus81" depart="405.00" from="-E3" to="E7" type="bus_bus"/>
    <trip id="bus82" depart="410.00" from="E6" to="-E1" type="bus_bus"/>
    <trip id="bus83" depart="415.00" from="-E3" to="E2" type="bus_bus"/>
    <trip id="bus84" depart="420.00" from="-E3" to="-E11" type="bus_bus"/>
    <trip id="bus85" depart="425.00" from="E8" to="E1" type="bus_bus"/>
    <trip id="bus86" depart="430.00" from="-E9" to="E4" type="bus_bus"/>
    <trip id="bus87" depart="435.00" from="E5" to="-E2" type="bus_bus"/>
    <trip id="bus88" depart="440.00" from="-E10" to="-E8" type="bus_bus"/>
    <trip id="bus89" depart="445.00" from="-E8" to="-E9" type="bus_bus"/>
    <trip id="bus90" depart="450.00" from="E3" to="E2" type="bus_bus"/>
    <trip id="bus91" depart="455.00" from="E9" to="-E10" type="bus_bus"/>
    <trip id="bus92" depart="460.00" from="-E7" to="-E6" type="bus_bus"/>
    <trip id="bus93" depart="465.00" from="E6" to="-E3" type="bus_bus"/>
    <trip id="bus94" depart="470.00" from="-E2" to="-E8" type="bus_bus"/>
    <trip id="bus95" depart="475.00" from="-E8" to="-E4" type="bus_bus"/>
    <trip id="bus96" depart="480.00" from="-E3" to="E8" type="bus_bus"/>
    <trip id="bus97" depart="485.00" from="-E8" to="E6" type="bus_bus"/>
    <trip id="bus98" depart="490.00" from="E1" to="-E1" type="bus_bus"/>
    <trip id="bus99" depart="495.00" from="E9" to="E6" type="bus_bus"/>
    <trip id="bus100" depart="500.00" from="E9" to="E8" type="bus_bus"/>
    <trip id="bus101" depart="505.00" from="E6" to="-E11" type="bus_bus"/>
    <trip id="bus102" depart="510.00" from="-E9" to="-E3" type="bus_bus"/>
    <trip id="bus103" depart="515.00" from="-E7" to="-E1" type="bus_bus"/>
    <trip id="bus104" depart="520.00" from="-E7" to="E9" type="bus_bus"/>
    <trip id="bus105" depart="525.00" from="-E4" to="E4" type="bus_bus"/>
    <trip id="bus106" depart="530.00" from="-E8" to="-E8" type="bus_bus"/>
    <trip id="bus107" depart="535.00" from="E8" to="E9" type="bus_bus"/>
    <trip id="bus108" depart="540.00" from="E1" to="E3" type="bus_bus"/>
    <trip id="bus109" depart="545.00" from="-E11" to="-E5" type="bus_bus"/>
    <trip id="bus110" depart="550.00" from="E9" to="E1" type="bus_bus"/>
    <trip id="bus111" depart="555.00" from="E1" to="E3" type="bus_bus"/>
    <trip id="bus112" depart="560.00" from="-E1" to="E10" type="bus_bus"/>
    <trip id="bus113" depart="565.00" from="E0" to="E6" type="bus_bus"/>
    <trip id="bus114" depart="570.00" from="-E11" to="E9" type="bus_bus"/>
    <trip id="bus115" depart="575.00" from="-E1" to="-E2" type="bus_bus"/>
    <trip id="bus116" depart="580.00" from="E10" to="E2" type="bus_bus"/>
    <trip id="bus117" depart="585.00" from="-E3" to="-E10" type="bus_bus"/>
    <trip id="bus118" depart="590.00" from="E7" to="-E3" type="bus_bus"/>
    <trip id="bus119" depart="595.00" from="E10" to="E10" type="bus_bus"/>
    <trip id="bus120" depart="600.00" from="-E8" to="E10" type="bus_bus"/>
    <trip id="bus121" depart="605.00" from="E0" to="E8" type="bus_bus"/>
    <trip id="bus122" depart="610.00" from="-E2" to="E3" type="bus_bus"/>
    <trip id="bus123" depart="615.00" from="-E3" to="-E7" type="bus_bus"/>
    <trip id="bus124" depart="620.00" from="E2" to="-E5" type="bus_bus"/>
    <trip id="bus125" depart="625.00" from="-E5" to="E4" type="bus_bus"/>
    <trip id="bus126" depart="630.00" from="-E1" to="-E8" type="bus_bus"/>
    <trip id="bus127" depart="635.00" from="E9" to="E9" type="bus_bus"/>
    <trip id="bus128" depart="640.00" from="-E1" to="-E3" type="bus_bus"/>
    <trip id="bus129" depart="645.00" from="-E4" to="E8" type="bus_bus"/>
    <trip id="bus130" depart="650.00" from="E7" to="E7" type="bus_bus"/>
    <trip id="bus131" depart="655.00" from="-E6" to="-E11" type="bus_bus"/>
    <trip id="bus132" depart="660.00" from="E6" to="E2" type="bus_bus"/>
    <trip id="bus133" depart="665.00" from="E10" to="E9" type="bus_bus"/>
    <trip id="bus134" depart="670.00" from="E11" to="-E0" type="bus_bus"/>
    <trip id="bus135" depart="675.00" from="E5" to="-E5" type="bus_bus"/>
    <trip id="bus136" depart="680.00" from="E11" to="E8" type="bus_bus"/>
    <trip id="bus137" depart="685.00" from="-E11" to="-E10" type="bus_bus"/>
    <trip id="bus138" depart="690.00" from="-E10" to="E1" type="bus_bus"/>
    <trip id="bus139" depart="695.00" from="-E4" to="E10" type="bus_bus"/>
    <trip id="bus140" depart="700.00" from="E3" to="-E2" type="bus_bus"/>
    <trip id="bus141" depart="705.00" from="E11" to="-E4" type="bus_bus"/>
    <trip id="bus142" depart="710.00" from="-E9" to="E7" type="bus_bus"/>
    <trip id="bus143" depart="715.00" from="E6" to="-E10" type="bus_bus"/>
    <trip id="bus144" depart="720.00" from="-E8" to="-E4" type="bus_bus"/>
    <trip id="bus145" depart="725.00" from="-E0" to="E4" type="bus_bus"/>
    <trip id="bus146" depart="730.00" from="E11" to="-E4" type="bus_bus"/>
    <trip id="bus147" depart="735.00" from="E3" to="E1" type="bus_bus"/>
    <trip id="bus148" depart="740.00" from="-E8" to="-E0" type="bus_bus"/>
    <trip id="bus149" depart="745.00" from="-E1" to="E7" type="bus_bus"/>
    <trip id="bus150" depart="750.00" from="E7" to="E1" type="bus_bus"/>
    <trip id="bus151" depart="755.00" from="E6" to="E1" type="bus_bus"/>
    <trip id="bus152" depart="760.00" from="-E11" to="-E11" type="bus_bus"/>
    <trip id="bus153" depart="765.00" from="-E5" to="E7" type="bus_bus"/>
    <trip id="bus154" depart="770.00" from="E5" to="E6" type="bus_bus"/>
    <trip id="bus155" depart="775.00" from="E7" to="-E3" type="bus_bus"/>
    <trip id="bus156" depart="780.00" from="-E3" to="-E10" type="bus_bus"/>
    <trip id="bus157" depart="785.00" from="E4" to="E7" type="bus_bus"/>
    <trip id="bus158" depart="790.00" from="-E7" to="E10" type="bus_bus"/>
    <trip id="bus159" depart="795.00" from="-E11" to="E8" type="bus_bus"/>
    <trip id="bus160" depart="800.00" from="E6" to="E9" type="bus_bus"/>
    <trip id="bus161" depart="805.00" from="E5" to="E7" type="bus_bus"/>
    <trip id="bus162" depart="810.00" from="-E0" to="E3" type="bus_bus"/>
    <trip id="bus163" depart="815.00" from="-E5" to="E8" type="bus_bus"/>
    <trip id="bus164" depart="820.00" from="E5" to="E6" type="bus_bus"/>
    <trip id="bus165" depart="825.00" from="E5" to="-E4" type="bus_bus"/>
    <trip id="bus166" depart="830.00" from="E4" to="-E10" type="bus_bus"/>
    <trip id="bus167" depart="835.00" from="E6" to="E6" type="bus_bus"/>
    <trip id="bus168" depart="840.00" from="-E3" to="E5" type="bus_bus"/>
    <trip id="bus169" depart="845.00" from="-E9" to="-E5" type="bus_bus"/>
    <trip id="bus170" depart="850.00" from="E5" to="-E3" type="bus_bus"/>
    <trip id="bus171" depart="855.00" from="-E0" to="-E2" type="bus_bus"/>
    <trip id="bus172" depart="860.00" from="-E5" to="E6" type="bus_bus"/>
    <trip id="bus173" depart="865.00" from="E9" to="-E4" type="bus_bus"/>
    <trip id="bus174" depart="870.00" from="E11" to="-E7" type="bus_bus"/>
    <trip id="bus175" depart="875.00" from="E9" to="E0" type="bus_bus"/>
    <trip id="bus176" depart="880.00" from="E8" to="-E10" type="bus_bus"/>
    <trip id="bus177" depart="885.00" from="E9" to="-E2" type="bus_bus"/>
    <trip id="bus178" depart="890.00" from="E9" to="-E4" type="bus_bus"/>
    <trip id="bus179" depart="895.00" from="-E10" to="-E8" type="bus_bus"/>
    <trip id="bus180" depart="900.00" from="E3" to="-E5" type="bus_bus"/>
    <trip id="bus181" depart="905.00" from="E10" to="E0" type="bus_bus"/>
    <trip id="bus182" depart="910.00" from="-E7" to="E1" type="bus_bus"/>
    <trip id="bus183" depart="915.00" from="-E4" to="E3" type="bus_bus"/>
    <trip id="bus184" depart="920.00" from="-E0" to="E8" type="bus_bus"/>
    <trip id="bus185" depart="925.00" from="E0" to="E3" type="bus_bus"/>
    <trip id="bus186" depart="930.00" from="E3" to="E2" type="bus_bus"/>
    <trip id="bus187" depart="935.00" from="-E6" to="-E1" type="bus_bus"/>
    <trip id="bus188" depart="940.00" from="E11" to="-E5" type="bus_bus"/>
    <trip id="bus189" depart="945.00" from="-E5" to="E6" type="bus_bus"/>
    <trip id="bus190" depart="950.00" from="E3" to="-E5" type="bus_bus"/>
    <trip id="bus191" depart="955.00" from="-E5" to="-E7" type="bus_bus"/>
    <trip id="bus192" depart="960.00" from="-E7" to="-E5" type="bus_bus"/>
    <trip id="bus193" depart="965.00" from="-E11" to="-E8" type="bus_bus"/>
    <trip id="bus194" depart="970.00" from="E8" to="E2" type="bus_bus"/>
    <trip id="bus195" depart="975.00" from="E7" to="E10" type="bus_bus"/>
    <trip id="bus196" depart="980.00" from="-E5" to="E1" type="bus_bus"/>
    <trip id="bus197" depart="985.00" from="-E0" to="-E4" type="bus_bus"/>
    <trip id="bus198" depart="990.00" from="-E8" to="E1" type="bus_bus"/>
    <trip id="bus199" depart="995.00" from="E11" to="-E9" type="bus_bus"/>
    <trip id="bus200" depart="1000.00" from="-E8" to="-E3" type="bus_bus"/>
    <trip id="bus201" depart="1005.00" from="-E9" to="E7" type="bus_bus"/>
    <trip id="bus202" depart="1010.00" from="E5" to="-E2" type="bus_bus"/>
    <trip id="bus203" depart="1015.00" from="-E10" to="E0" type="bus_bus"/>
    <trip id="bus204" depart="1020.00" from="E11" to="-E6" type="bus_bus"/>
    <trip id="bus205" depart="1025.00" from="E5" to="E4" type="bus_bus"/>
    <trip id="bus206" depart="1030.00" from="E2" to="-E3" type="bus_bus"/>
    <trip id="bus207" depart="1035.00" from="-E2" to="-E0" type="bus_bus"/>
    <trip id="bus208" depart="1040.00" from="-E3" to="-E9" type="bus_bus"/>
    <trip id="bus209" depart="1045.00" from="E6" to="-E1" type="bus_bus"/>
    <trip id="bus210" depart="1050.00" from="-E7" to="E11" type="bus_bus"/>
    <trip id="bus211" depart="1055.00" from="-E2" to="E2" type="bus_bus"/>
    <trip id="bus212" depart="1060.00" from="-E9" to="-E3" type="bus_bus"/>
    <trip id="bus213" depart="1065.00" from="E11" to="-E0" type="bus_bus"/>
    <trip id="bus214" depart="1070.00" from="E4" to="E4" type="bus_bus"/>
    <trip id="bus215" depart="1075.00" from="-E10" to="-E8" type="bus_bus"/>
    <trip id="bus216" depart="1080.00" from="-E2" to="E8" type="bus_bus"/>
    <trip id="bus217" depart="1085.00" from="E0" to="-E1" type="bus_bus"/>
    <trip id="bus218" depart="1090.00" from="-E3" to="E6" type="bus_bus"/>
    <trip id="bus219" depart="1095.00" from="-E8" to="E5" type="bus_bus"/>
    <trip id="bus220" depart="1100.00" from="E2" to="E9" type="bus_bus"/>
    <trip id="bus221" depart="1105.00" from="E10" to="E8" type="bus_bus"/>
    <trip id="bus222" depart="1110.00" from="E7" to="E10" type="bus_bus"/>
    <trip id="bus223" depart="1115.00" from="E3" to="E0" type="bus_bus"/>
    <trip id="bus224" depart="1120.00" from="E5" to="E1" type="bus_bus"/>
    <trip id="bus225" depart="1125.00" from="E7" to="E3" type="bus_bus"/>
    <trip id="bus226" depart="1130.00" from="-E9" to="-E4" type="bus_bus"/>
    <trip id="bus227" depart="1135.00" from="-E3" to="E11" type="bus_bus"/>
    <trip id="bus228" depart="1140.00" from="E4" to="E0" type="bus_bus"/>
    <trip id="bus229" depart="1145.00" from="E11" to="-E4" type="bus_bus"/>
    <trip id="bus230" depart="1150.00" from="-E1" to="-E4" type="bus_bus"/>
    <trip id="bus231" depart="1155.00" from="-E4" to="-E5" type="bus_bus"/>
    <trip id="bus232" depart="1160.00" from="E0" to="-E11" type="bus_bus"/>
    <trip id="bus233" depart="1165.00" from="-E3" to="E2" type="bus_bus"/>
    <trip id="bus234" depart="1170.00" from="E2" to="-E1" type="bus_bus"/>
    <trip id="bus235" depart="1175.00" from="-E7" to="E1" type="bus_bus"/>
    <trip id="bus236" depart="1180.00" from="-E7" to="-E2" type="bus_bus"/>
    <trip id="bus237" depart="1185.00" from="-E8" to="E7" type="bus_bus"/>
    <trip id="bus238" depart="1190.00" from="E10" to="E2" type="bus_bus"/>
    <trip id="bus239" depart="1195.00" from="E6" to="E4" type="bus_bus"/>
    <trip id="bus240" depart="1200.00" from="-E7" to="-E0" type="bus_bus"/>
    <trip id="bus241" depart="1205.00" from="-E6" to="E4" type="bus_bus"/>
    <trip id="bus242" depart="1210.00" from="E6" to="E8" type="bus_bus"/>
    <trip id="bus243" depart="1215.00" from="-E8" to="E3" type="bus_bus"/>
    <trip id="bus244" depart="1220.00" from="E1" to="E10" type="bus_bus"/>
    <trip id="bus245" depart="1225.00" from="-E3" to="-E3" type="bus_bus"/>
    <trip id="bus246" depart="1230.00" from="-E8" to="-E0" type="bus_bus"/>
    <trip id="bus247" depart="1235.00" from="-E6" to="E2" type="bus_bus"/>
    <trip id="bus248" depart="1240.00" from="-E7" to="-E11" type="bus_bus"/>
    <trip id="bus249" depart="1245.00" from="-E9" to="-E11" type="bus_bus"/>
    <trip id="bus250" depart="1250.00" from="E10" to="-E0" type="bus_bus"/>
    <trip id="bus251" depart="1255.00" from="-E7" to="E1" type="bus_bus"/>
    <trip id="bus252" depart="1260.00" from="-E0" to="E11" type="bus_bus"/>
    <trip id="bus253" depart="1265.00" from="-E11" to="-E9" type="bus_bus"/>
    <trip id="bus254" depart="1270.00" from="-E1" to="-E7" type="bus_bus"/>
    <trip id="bus255" depart="1275.00" from="-E3" to="-E5" type="bus_bus"/>
    <trip id="bus256" depart="1280.00" from="E4" to="-E7" type="bus_bus"/>
    <trip id="bus257" depart="1285.00" from="E4" to="E5" type="bus_bus"/>
    <trip id="bus258" depart="1290.00" from="-E4" to="-E1" type="bus_bus"/>
    <trip id="bus259" depart="1295.00" from="-E0" to="E0" type="bus_bus"/>
    <trip id="bus260" depart="1300.00" from="E9" to="-E6" type="bus_bus"/>
    <trip id="bus261" depart="1305.00" from="E11" to="E4" type="bus_bus"/>
    <trip id="bus262" depart="1310.00" from="E11" to="E4" type="bus_bus"/>
    <trip id="bus263" depart="1315.00" from="E8" to="-E2" type="bus_bus"/>
    <trip id="bus264" depart="1320.00" from="-E0" to="-E11" type="bus_bus"/>
    <trip id="bus265" depart="1325.00" from="-E11" to="E2" type="bus_bus"/>
    <trip id="bus266" depart="1330.00" from="E1" to="-E3" type="bus_bus"/>
    <trip id="bus267" depart="1335.00" from="E2" to="E4" type="bus_bus"/>
    <trip id="bus268" depart="1340.00" from="-E2" to="E10" type="bus_bus"/>
    <trip id="bus269" depart="1345.00" from="E3" to="-E10" type="bus_bus"/>
    <trip id="bus270" depart="1350.00" from="E5" to="E9" type="bus_bus"/>
    <trip id="bus271" depart="1355.00" from="-E10" to="-E0" type="bus_bus"/>
    <trip id="bus272" depart="1360.00" from="-E5" to="E2" type="bus_bus"/>
    <trip id="bus273" depart="1365.00" from="E8" to="-E7" type="bus_bus"/>
    <trip id="bus274" depart="1370.00" from="E3" to="-E1" type="bus_bus"/>
    <trip id="bus275" depart="1375.00" from="E2" to="E11" type="bus_bus"/>
    <trip id="bus276" depart="1380.00" from="-E10" to="E4" type="bus_bus"/>
    <trip id="bus277" depart="1385.00" from="E6" to="E10" type="bus_bus"/>
    <trip id="bus278" depart="1390.00" from="-E10" to="E9" type="bus_bus"/>
    <trip id="bus279" depart="1395.00" from="E4" to="-E6" type="bus_bus"/>
    <trip id="bus280" depart="1400.00" from="-E8" to="-E6" type="bus_bus"/>
    <trip id="bus281" depart="1405.00" from="E0" to="-E6" type="bus_bus"/>
    <trip id="bus282" depart="1410.00" from="E6" to="E5" type="bus_bus"/>
    <trip id="bus283" depart="1415.00" from="-E10" to="E9" type="bus_bus"/>
    <trip id="bus284" depart="1420.00" from="E11" to="E5" type="bus_bus"/>
    <trip id="bus285" depart="1425.00" from="E2" to="-E8" type="bus_bus"/>
    <trip id="bus286" depart="1430.00" from="E3" to="E9" type="bus_bus"/>
    <trip id="bus287" depart="1435.00" from="-E4" to="E5" type="bus_bus"/>
    <trip id="bus288" depart="1440.00" from="E0" to="-E9" type="bus_bus"/>
    <trip id="bus289" depart="1445.00" from="-E8" to="E3" type="bus_bus"/>
    <trip id="bus290" depart="1450.00" from="-E4" to="E6" type="bus_bus"/>
    <trip id="bus291" depart="1455.00" from="E5" to="-E10" type="bus_bus"/>
    <trip id="bus292" depart="1460.00" from="E7" to="-E3" type="bus_bus"/>
    <trip id="bus293" depart="1465.00" from="-E9" to="E10" type="bus_bus"/>
    <trip id="bus294" depart="1470.00" from="-E7" to="-E0" type="bus_bus"/>
    <trip id="bus295" depart="1475.00" from="E6" to="-E2" type="bus_bus"/>
    <trip id="bus296" depart="1480.00" from="-E3" to="E5" type="bus_bus"/>
    <trip id="bus297" depart="1485.00" from="-E6" to="E7" type="bus_bus"/>
    <trip id="bus298" depart="1490.00" from="E2" to="-E4" type="bus_bus"/>
    <trip id="bus299" depart="1495.00" from="-E0" to="E8" type="bus_bus"/>
    <trip id="bus300" depart="1500.00" from="-E10" to="E3" type="bus_bus"/>
    <trip id="bus301" depart="1505.00" from="-E9" to="E4" type="bus_bus"/>
    <trip id="bus302" depart="1510.00" from="E2" to="E11" type="bus_bus"/>
    <trip id="bus303" depart="1515.00" from="-E9" to="E5" type="bus_bus"/>
    <trip id="bus304" depart="1520.00" from="-E10" to="-E3" type="bus_bus"/>
    <trip id="bus305" depart="1525.00" from="E2" to="-E5" type="bus_bus"/>
    <trip id="bus306" depart="1530.00" from="E1" to="-E9" type="bus_bus"/>
    <trip id="bus307" depart="1535.00" from="E0" to="-E8" type="bus_bus"/>
    <trip id="bus308" depart="1540.00" from="E3" to="-E5" type="bus_bus"/>
    <trip id="bus309" depart="1545.00" from="E2" to="-E4" type="bus_bus"/>
    <trip id="bus310" depart="1550.00" from="-E4" to="-E10" type="bus_bus"/>
    <trip id="bus311" depart="1555.00" from="-E2" to="-E10" type="bus_bus"/>
    <trip id="bus312" depart="1560.00" from="E0" to="E4" type="bus_bus"/>
    <trip id="bus313" depart="1565.00" from="-E2" to="-E3" type="bus_bus"/>
    <trip id="bus314" depart="1570.00" from="-E9" to="E3" type="bus_bus"/>
    <trip id="bus315" depart="1575.00" from="E9" to="E0" type="bus_bus"/>
    <trip id="bus316" depart="1580.00" from="-E4" to="-E10" type="bus_bus"/>
    <trip id="bus317" depart="1585.00" from="-E2" to="-E3" type="bus_bus"/>
    <trip id="bus318" depart="1590.00" from="-E2" to="-E0" type="bus_bus"/>
    <trip id="bus319" depart="1595.00" from="E0" to="-E4" type="bus_bus"/>
    <trip id="bus320" depart="1600.00" from="E9" to="E1" type="bus_bus"/>
    <trip id="bus321" depart="1605.00" from="E2" to="-E11" type="bus_bus"/>
    <trip id="bus322" depart="1610.00" from="E6" to="-E9" type="bus_bus"/>
    <trip id="bus323" depart="1615.00" from="E6" to="E1" type="bus_bus"/>
    <trip id="bus324" depart="1620.00" from="-E9" to="-E8" type="bus_bus"/>
    <trip id="bus325" depart="1625.00" from="-E2" to="-E1" type="bus_bus"/>
    <trip id="bus326" depart="1630.00" from="E8" to="-E9" type="bus_bus"/>
    <trip id="bus327" depart="1635.00" from="E5" to="-E7" type="bus_bus"/>
    <trip id="bus328" depart="1640.00" from="-E1" to="E11" type="bus_bus"/>
    <trip id="bus329" depart="1645.00" from="-E1" to="-E11" type="bus_bus"/>
    <trip id="bus330" depart="1650.00" from="E1" to="-E5" type="bus_bus"/>
    <trip id="bus331" depart="1655.00" from="E9" to="-E10" type="bus_bus"/>
    <trip id="bus332" depart="1660.00" from="E4" to="E10" type="bus_bus"/>
    <trip id="bus333" depart="1665.00" from="E4" to="-E3" type="bus_bus"/>
    <trip id="bus334" depart="1670.00" from="E0" to="-E8" type="bus_bus"/>
    <trip id="bus335" depart="1675.00" from="-E8" to="E6" type="bus_bus"/>
    <trip id="bus336" depart="1680.00" from="E9" to="-E5" type="bus_bus"/>
    <trip id="bus337" depart="1685.00" from="E10" to="E10" type="bus_bus"/>
    <trip id="bus338" depart="1690.00" from="E3" to="E8" type="bus_bus"/>
    <trip id="bus339" depart="1695.00" from="-E2" to="-E3" type="bus_bus"/>
    <trip id="bus340" depart="1700.00" from="E11" to="-E11" type="bus_bus"/>
    <trip id="bus341" depart="1705.00" from="-E2" to="-E1" type="bus_bus"/>
    <trip id="bus342" depart="1710.00" from="-E0" to="-E8" type="bus_bus"/>
    <trip id="bus343" depart="1715.00" from="E10" to="-E4" type="bus_bus"/>
    <trip id="bus344" depart="1720.00" from="-E3" to="E2" type="bus_bus"/>
    <trip id="bus345" depart="1725.00" from="E2" to="-E8" type="bus_bus"/>
    <trip id="bus346" depart="1730.00" from="E2" to="E8" type="bus_bus"/>
    <trip id="bus347" depart="1735.00" from="E4" to="E11" type="bus_bus"/>
    <trip id="bus348" depart="1740.00" from="E11" to="E8" type="bus_bus"/>
    <trip id="bus349" depart="1745.00" from="-E8" to="E1" type="bus_bus"/>
    <trip id="bus350" depart="1750.00" from="E11" to="E7" type="bus_bus"/>
    <trip id="bus351" depart="1755.00" from="E5" to="-E1" type="bus_bus"/>
    <trip id="bus352" depart="1760.00" from="-E11" to="-E5" type="bus_bus"/>
    <trip id="bus353" depart="1765.00" from="E3" to="E1" type="bus_bus"/>
    <trip id="bus354" depart="1770.00" from="-E4" to="-E10" type="bus_bus"/>
    <trip id="bus355" depart="1775.00" from="E2" to="E2" type="bus_bus"/>
    <trip id="bus356" depart="1780.00" from="E8" to="E0" type="bus_bus"/>
    <trip id="bus357" depart="1785.00" from="-E9" to="-E1" type="bus_bus"/>
    <trip id="bus358" depart="1790.00" from="-E0" to="-E8" type="bus_bus"/>
    <trip id="bus359" depart="1795.00" from="-E5" to="-E4" type="bus_bus"/>
    <trip id="bus360" depart="1800.00" from="-E10" to="E9" type="bus_bus"/>
    <trip id="bus361" depart="1805.00" from="E6" to="E1" type="bus_bus"/>
    <trip id="bus362" depart="1810.00" from="E8" to="E9" type="bus_bus"/>
    <trip id="bus363" depart="1815.00" from="E2" to="-E4" type="bus_bus"/>
    <trip id="bus364" depart="1820.00" from="-E0" to="E4" type="bus_bus"/>
    <trip id="bus365" depart="1825.00" from="-E9" to="E11" type="bus_bus"/>
    <trip id="bus366" depart="1830.00" from="E7" to="-E2" type="bus_bus"/>
    <trip id="bus367" depart="1835.00" from="E10" to="E11" type="bus_bus"/>
    <trip id="bus368" depart="1840.00" from="-E9" to="-E10" type="bus_bus"/>
    <trip id="bus369" depart="1845.00" from="-E6" to="-E5" type="bus_bus"/>
    <trip id="bus370" depart="1850.00" from="E2" to="E6" type="bus_bus"/>
    <trip id="bus371" depart="1855.00" from="-E5" to="E2" type="bus_bus"/>
    <trip id="bus372" depart="1860.00" from="-E4" to="E8" type="bus_bus"/>
    <trip id="bus373" depart="1865.00" from="E5" to="E1" type="bus_bus"/>
    <trip id="bus374" depart="1870.00" from="-E8" to="-E5" type="bus_bus"/>
    <trip id="bus375" depart="1875.00" from="-E5" to="E9" type="bus_bus"/>
    <trip id="bus376" depart="1880.00" from="-E7" to="E0" type="bus_bus"/>
    <trip id="bus377" depart="1885.00" from="E9" to="E11" type="bus_bus"/>
    <trip id="bus378" depart="1890.00" from="E1" to="-E7" type="bus_bus"/>
    <trip id="bus379" depart="1895.00" from="-E2" to="-E6" type="bus_bus"/>
    <trip id="bus380" depart="1900.00" from="E4" to="E11" type="bus_bus"/>
    <trip id="bus381" depart="1905.00" from="E4" to="-E2" type="bus_bus"/>
    <trip id="bus382" depart="1910.00" from="E1" to="E8" type="bus_bus"/>
    <trip id="bus383" depart="1915.00" from="-E8" to="E2" type="bus_bus"/>
    <trip id="bus384" depart="1920.00" from="-E10" to="E9" type="bus_bus"/>
    <trip id="bus385" depart="1925.00" from="E10" to="-E3" type="bus_bus"/>
    <trip id="bus386" depart="1930.00" from="-E11" to="E1" type="bus_bus"/>
    <trip id="bus387" depart="1935.00" from="E1" to="-E10" type="bus_bus"/>
    <trip id="bus388" depart="1940.00" from="E9" to="E7" type="bus_bus"/>
    <trip id="bus389" depart="1945.00" from="-E9" to="-E10" type="bus_bus"/>
    <trip id="bus390" depart="1950.00" from="E5" to="-E9" type="bus_bus"/>
    <trip id="bus391" depart="1955.00" from="E3" to="E0" type="bus_bus"/>
    <trip id="bus392" depart="1960.00" from="-E4" to="E6" type="bus_bus"/>
    <trip id="bus393" depart="1965.00" from="E9" to="-E3" type="bus_bus"/>