<?xml version="1.0" encoding="UTF-8"?>

<!-- generated on 2024-06-20 01:36:27.588890 by randomTrips.py v1_20_0+0002-343658e7c64
<configuration>
    <net-file value="F:\Project\Thesis\Thesis\Sumo\traci\map4\map4.net.xml"/>
    <output-trip-file value="F:\Project\Thesis\Thesis\Sumo\traci\map4\car.trips.xml"/>
    <prefix value="car"/>
    <vehicle-class value="passenger"/>
    <insertion-rate value="720.0"/>
</configuration>
-->

<routes xmlns:xsi="http://www.w3.org/2001/XMLSchema-instance" xsi:noNamespaceSchemaLocation="http://sumo.dlr.de/xsd/routes_file.xsd">
    <vType id="car_passenger" vClass="passenger"/>
    <trip id="car0" depart="0.00" from="E11" to="-E0" type="car_passenger"/>
    <trip id="car1" depart="5.00" from="-E4" to="-E3" type="car_passenger"/>
    <trip id="car2" depart="10.00" from="E3" to="E2" type="car_passenger"/>
    <trip id="car3" depart="15.00" from="E7" to="-E10" type="car_passenger"/>
    <trip id="car4" depart="20.00" from="-E8" to="-E0" type="car_passenger"/>
    <trip id="car5" depart="25.00" from="-E3" to="E0" type="car_passenger"/>
    <trip id="car6" depart="30.00" from="-E0" to="-E2" type="car_passenger"/>
    <trip id="car7" depart="35.00" from="E11" to="E1" type="car_passenger"/>
    <trip id="car8" depart="40.00" from="-E3" to="E10" type="car_passenger"/>
    <trip id="car9" depart="45.00" from="E5" to="-E0" type="car_passenger"/>
    <trip id="car10" depart="50.00" from="E5" to="E2" type="car_passenger"/>
    <trip id="car11" depart="55.00" from="-E6" to="-E11" type="car_passenger"/>
    <trip id="car12" depart="60.00" from="E8" to="-E6" type="car_passenger"/>
    <trip id="car13" depart="65.00" from="-E10" to="-E10" type="car_passenger"/>
    <trip id="car14" depart="70.00" from="E6" to="E10" type="car_passenger"/>
    <trip id="car15" depart="75.00" from="E5" to="E3" type="car_passenger"/>
    <trip id="car16" depart="80.00" from="E0" to="E9" type="car_passenger"/>
    <trip id="car17" depart="85.00" from="-E7" to="E1" type="car_passenger"/>
    <trip id="car18" depart="90.00" from="E5" to="E10" type="car_passenger"/>
    <trip id="car19" depart="95.00" from="E6" to="E1" type="car_passenger"/>
    <trip id="car20" depart="100.00" from="E2" to="-E1" type="car_passenger"/>
    <trip id="car21" depart="105.00" from="-E3" to="-E4" type="car_passenger"/>
    <trip id="car22" depart="110.00" from="-E1" to="-E3" type="car_passenger"/>
    <trip id="car23" depart="115.00" from="-E10" to="-E4" type="car_passenger"/>
    <trip id="car24" depart="120.00" from="E11" to="-E6" type="car_passenger"/>
    <trip id="car25" depart="125.00" from="-E6" to="-E3" type="car_passenger"/>
    <trip id="car26" depart="130.00" from="-E4" to="E8" type="car_passenger"/>
    <trip id="car27" depart="135.00" from="E11" to="E10" type="car_passenger"/>
    <trip id="car28" depart="140.00" from="-E2" to="E3" type="car_passenger"/>
    <trip id="car29" depart="145.00" from="-E11" to="-E7" type="car_passenger"/>
    <trip id="car30" depart="150.00" from="E9" to="E11" type="car_passenger"/>
    <trip id="car31" depart="155.00" from="E1" to="E2" type="car_passenger"/>
    <trip id="car32" depart="160.00" from="E6" to="E4" type="car_passenger"/>
    <trip id="car33" depart="165.00" from="-E3" to="-E0" type="car_passenger"/>
    <trip id="car34" depart="170.00" from="-E5" to="-E4" type="car_passenger"/>
    <trip id="car35" depart="175.00" from="-E3" to="E8" type="car_passenger"/>
    <trip id="car36" depart="180.00" from="E7" to="-E5" type="car_passenger"/>
    <trip id="car37" depart="185.00" from="E11" to="-E7" type="car_passenger"/>
    <trip id="car38" depart="190.00" from="E7" to="-E9" type="car_passenger"/>
    <trip id="car39" depart="195.00" from="-E4" to="-E3" type="car_passenger"/>
    <trip id="car40" depart="200.00" from="E1" to="-E4" type="car_passenger"/>
    <trip id="car41" depart="205.00" from="E10" to="E7" type="car_passenger"/>
    <trip id="car42" depart="210.00" from="-E7" to="-E3" type="car_passenger"/>
    <trip id="car43" depart="215.00" from="E9" to="E0" type="car_passenger"/>
    <trip id="car44" depart="220.00" from="-E10" to="-E1" type="car_passenger"/>
    <trip id="car45" depart="225.00" from="-E10" to="E11" type="car_passenger"/>
    <trip id="car46" depart="230.00" from="E5" to="-E8" type="car_passenger"/>
    <trip id="car47" depart="235.00" from="-E1" to="-E7" type="car_passenger"/>
    <trip id="car48" depart="240.00" from="E9" to="E0" type="car_passenger"/>
    <trip id="car49" depart="245.00" from="E9" to="E6" type="car_passenger"/>
    <trip id="car50" depart="250.00" from="-E0" to="E3" type="car_passenger"/>
    <trip id="car51" depart="255.00" from="E2" to="E0" type="car_passenger"/>
    <trip id="car52" depart="260.00" from="-E4" to="E11" type="car_passenger"/>
    <trip id="car53" depart="265.00" from="-E10" to="-E8" type="car_passenger"/>
    <trip id="car54" depart="270.00" from="-E8" to="E8" type="car_passenger"/>
    <trip id="car55" depart="275.00" from="E7" to="-E4" type="car_passenger"/>
    <trip id="car56" depart="280.00" from="E0" to="-E2" type="car_passenger"/>
    <trip id="car57" depart="285.00" from="E7" to="E6" type="car_passenger"/>
    <trip id="car58" depart="290.00" from="-E5" to="E11" type="car_passenger"/>
    <trip id="car59" depart="295.00" from="E10" to="-E11" type="car_passenger"/>
    <trip id="car60" depart="300.00" from="E4" to="E0" type="car_passenger"/>
    <trip id="car61" depart="305.00" from="E4" to="E0" type="car_passenger"/>
    <trip id="car62" depart="310.00" from="-E0" to="-E5" type="car_passenger"/>
    <trip id="car63" depart="315.00" from="-E0" to="E8" type="car_passenger"/>
    <trip id="car64" depart="320.00" from="E7" to="E5" type="car_passenger"/>
    <trip id="car65" depart="325.00" from="-E5" to="-E1" type="car_passenger"/>
    <trip id="car66" depart="330.00" from="E7" to="E8" type="car_passenger"/>
    <trip id="car67" depart="335.00" from="-E10" to="-E9" type="car_passenger"/>
    <trip id="car68" depart="340.00" from="-E1" to="E4" type="car_passenger"/>
    <trip id="car69" depart="345.00" from="E4" to="-E11" type="car_passenger"/>
    <trip id="car70" depart="350.00" from="-E9" to="E1" type="car_passenger"/>
    <trip id="car71" depart="355.00" from="-E4" to="E6" type="car_passenger"/>
    <trip id="car72" depart="360.00" from="-E8" to="-E3" type="car_passenger"/>
    <trip id="car73" depart="365.00" from="E0" to="E3" type="car_passenger"/>
    <trip id="car74" depart="370.00" from="-E2" to="-E5" type="car_passenger"/>
    <trip id="car75" depart="375.00" from="E9" to="E11" type="car_passenger"/>
    <trip id="car76" depart="380.00" from="-E8" to="E0" type="car_passenger"/>
    <trip id="car77" depart="385.00" from="-E10" to="-E3" type="car_passenger"/>
    <trip id="car78" depart="390.00" from="-E6" to="E10" type="car_passenger"/>
    <trip id="car79" depart="395.00" from="-E3" to="-E3" type="car_passenger"/>
    <trip id="car80" depart="400.00" from="-E1" to="E11" type="car_passenger"/>
    <trip id="car81" depart="405.00" from="-E3" to="E7" type="car_passenger"/>
    <trip id="car82" depart="410.00" from="E6" to="-E1" type="car_passenger"/>
    <trip id="car83" depart="415.00" from="-E3" to="E2" type="car_passenger"/>
    <trip id="car84" depart="420.00" from="-E3" to="-E11" type="car_passenger"/>
    <trip id="car85" depart="425.00" from="E8" to="E1" type="car_passenger"/>
    <trip id="car86" depart="430.00" from="-E9" to="E4" type="car_passenger"/>
    <trip id="car87" depart="435.00" from="E5" to="-E2" type="car_passenger"/>
    <trip id="car88" depart="440.00" from="-E10" to="-E8" type="car_passenger"/>
    <trip id="car89" depart="445.00" from="-E8" to="-E9" type="car_passenger"/>
    <trip id="car90" depart="450.00" from="E3" to="E2" type="car_passenger"/>
    <trip id="car91" depart="455.00" from="E9" to="-E10" type="car_passenger"/>
    <trip id="car92" depart="460.00" from="-E7" to="-E6" type="car_passenger"/>
    <trip id="car93" depart="465.00" from="E6" to="-E3" type="car_passenger"/>
    <trip id="car94" depart="470.00" from="-E2" to="-E8" type="car_passenger"/>
    <trip id="car95" depart="475.00" from="-E8" to="-E4" type="car_passenger"/>
    <trip id="car96" depart="480.00" from="-E3" to="E8" type="car_passenger"/>
    <trip id="car97" depart="485.00" from="-E8" to="E6" type="car_passenger"/>
    <trip id="car98" depart="490.00" from="E1" to="-E1" type="car_passenger"/>
    <trip id="car99" depart="495.00" from="E9" to="E6" type="car_passenger"/>
    <trip id="car100" depart="500.00" from="E9" to="E8" type="car_passenger"/>
    <trip id="car101" depart="505.00" from="E6" to="-E11" type="car_passenger"/>
    <trip id="car102" depart="510.00" from="-E9" to="-E3" type="car_passenger"/>
    <trip id="car103" depart="515.00" from="-E7" to="-E1" type="car_passenger"/>
    <trip id="car104" depart="520.00" from="-E7" to="E9" type="car_passenger"/>
    <trip id="car105" depart="525.00" from="-E4" to="E4" type="car_passenger"/>
    <trip id="car106" depart="530.00" from="-E8" to="-E8" type="car_passenger"/>
    <trip id="car107" depart="535.00" from="E8" to="E9" type="car_passenger"/>
    <trip id="car108" depart="540.00" from="E1" to="E3" type="car_passenger"/>
    <trip id="car109" depart="545.00" from="-E11" to="-E5" type="car_passenger"/>
    <trip id="car110" depart="550.00" from="E9" to="E1" type="car_passenger"/>
    <trip id="car111" depart="555.00" from="E1" to="E3" type="car_passenger"/>
    <trip id="car112" depart="560.00" from="-E1" to="E10" type="car_passenger"/>
    <trip id="car113" depart="565.00" from="E0" to="E6" type="car_passenger"/>
    <trip id="car114" depart="570.00" from="-E11" to="E9" type="car_passenger"/>
    <trip id="car115" depart="575.00" from="-E1" to="-E2" type="car_passenger"/>
    <trip id="car116" depart="580.00" from="E10" to="E2" type="car_passenger"/>
    <trip id="car117" depart="585.00" from="-E3" to="-E10" type="car_passenger"/>
    <trip id="car118" depart="590.00" from="E7" to="-E3" type="car_passenger"/>
    <trip id="car119" depart="595.00" from="E10" to="E10" type="car_passenger"/>
    <trip id="car120" depart="600.00" from="-E8" to="E10" type="car_passenger"/>
    <trip id="car121" depart="605.00" from="E0" to="E8" type="car_passenger"/>
    <trip id="car122" depart="610.00" from="-E2" to="E3" type="car_passenger"/>
    <trip id="car123" depart="615.00" from="-E3" to="-E7" type="car_passenger"/>
    <trip id="car124" depart="620.00" from="E2" to="-E5" type="car_passenger"/>
    <trip id="car125" depart="625.00" from="-E5" to="E4" type="car_passenger"/>
    <trip id="car126" depart="630.00" from="-E1" to="-E8" type="car_passenger"/>
    <trip id="car127" depart="635.00" from="E9" to="E9" type="car_passenger"/>
    <trip id="car128" depart="640.00" from="-E1" to="-E3" type="car_passenger"/>
    <trip id="car129" depart="645.00" from="-E4" to="E8" type="car_passenger"/>
    <trip id="car130" depart="650.00" from="E7" to="E7" type="car_passenger"/>
    <trip id="car131" depart="655.00" from="-E6" to="-E11" type="car_passenger"/>
    <trip id="car132" depart="660.00" from="E6" to="E2" type="car_passenger"/>
    <trip id="car133" depart="665.00" from="E10" to="E9" type="car_passenger"/>
    <trip id="car134" depart="670.00" from="E11" to="-E0" type="car_passenger"/>
    <trip id="car135" depart="675.00" from="E5" to="-E5" type="car_passenger"/>
    <trip id="car136" depart="680.00" from="E11" to="E8" type="car_passenger"/>
    <trip id="car137" depart="685.00" from="-E11" to="-E10" type="car_passenger"/>
    <trip id="car138" depart="690.00" from="-E10" to="E1" type="car_passenger"/>
    <trip id="car139" depart="695.00" from="-E4" to="E10" type="car_passenger"/>
    <trip id="car140" depart="700.00" from="E3" to="-E2" type="car_passenger"/>
    <trip id="car141" depart="705.00" from="E11" to="-E4" type="car_passenger"/>
    <trip id="car142" depart="710.00" from="-E9" to="E7" type="car_passenger"/>
    <trip id="car143" depart="715.00" from="E6" to="-E10" type="car_passenger"/>
    <trip id="car144" depart="720.00" from="-E8" to="-E4" type="car_passenger"/>
    <trip id="car145" depart="725.00" from="-E0" to="E4" type="car_passenger"/>
    <trip id="car146" depart="730.00" from="E11" to="-E4" type="car_passenger"/>
    <trip id="car147" depart="735.00" from="E3" to="E1" type="car_passenger"/>
    <trip id="car148" depart="740.00" from="-E8" to="-E0" type="car_passenger"/>
    <trip id="car149" depart="745.00" from="-E1" to="E7" type="car_passenger"/>
    <trip id="car150" depart="750.00" from="E7" to="E1" type="car_passenger"/>
    <trip id="car151" depart="755.00" from="E6" to="E1" type="car_passenger"/>
    <trip id="car152" depart="760.00" from="-E11" to="-E11" type="car_passenger"/>
    <trip id="car153" depart="765.00" from="-E5" to="E7" type="car_passenger"/>
    <trip id="car154" depart="770.00" from="E5" to="E6" type="car_passenger"/>
    <trip id="car155" depart="775.00" from="E7" to="-E3" type="car_passenger"/>
    <trip id="car156" depart="780.00" from="-E3" to="-E10" type="car_passenger"/>
    <trip id="car157" depart="785.00" from="E4" to="E7" type="car_passenger"/>
    <trip id="car158" depart="790.00" from="-E7" to="E10" type="car_passenger"/>
    <trip id="car159" depart="795.00" from="-E11" to="E8" type="car_passenger"/>
    <trip id="car160" depart="800.00" from="E6" to="E9" type="car_passenger"/>
    <trip id="car161" depart="805.00" from="E5" to="E7" type="car_passenger"/>
    <trip id="car162" depart="810.00" from="-E0" to="E3" type="car_passenger"/>
    <trip id="car163" depart="815.00" from="-E5" to="E8" type="car_passenger"/>
    <trip id="car164" depart="820.00" from="E5" to="E6" type="car_passenger"/>
    <trip id="car165" depart="825.00" from="E5" to="-E4" type="car_passenger"/>
    <trip id="car166" depart="830.00" from="E4" to="-E10" type="car_passenger"/>
    <trip id="car167" depart="835.00" from="E6" to="E6" type="car_passenger"/>
    <trip id="car168" depart="840.00" from="-E3" to="E5" type="car_passenger"/>
    <trip id="car169" depart="845.00" from="-E9" to="-E5" type="car_passenger"/>
    <trip id="car170" depart="850.00" from="E5" to="-E3" type="car_passenger"/>
    <trip id="car171" depart="855.00" from="-E0" to="-E2" type="car_passenger"/>
    <trip id="car172" depart="860.00" from="-E5" to="E6" type="car_passenger"/>
    <trip id="car173" depart="865.00" from="E9" to="-E4" type="car_passenger"/>
    <trip id="car174" depart="870.00" from="E11" to="-E7" type="car_passenger"/>
    <trip id="car175" depart="875.00" from="E9" to="E0" type="car_passenger"/>
    <trip id="car176" depart="880.00" from="E8" to="-E10" type="car_passenger"/>
    <trip id="car177" depart="885.00" from="E9" to="-E2" type="car_passenger"/>
    <trip id="car178" depart="890.00" from="E9" to="-E4" type="car_passenger"/>
    <trip id="car179" depart="895.00" from="-E10" to="-E8" type="car_passenger"/>
    <trip id="car180" depart="900.00" from="E3" to="-E5" type="car_passenger"/>
    <trip id="car181" depart="905.00" from="E10" to="E0" type="car_passenger"/>
    <trip id="car182" depart="910.00" from="-E7" to="E1" type="car_passenger"/>
    <trip id="car183" depart="915.00" from="-E4" to="E3" type="car_passenger"/>
    <trip id="car184" depart="920.00" from="-E0" to="E8" type="car_passenger"/>
    <trip id="car185" depart="925.00" from="E0" to="E3" type="car_passenger"/>
    <trip id="car186" depart="930.00" from="E3" to="E2" type="car_passenger"/>
    <trip id="car187" depart="935.00" from="-E6" to="-E1" type="car_passenger"/>
    <trip id="car188" depart="940.00" from="E11" to="-E5" type="car_passenger"/>
    <trip id="car189" depart="945.00" from="-E5" to="E6" type="car_passenger"/>
    <trip id="car190" depart="950.00" from="E3" to="-E5" type="car_passenger"/>
    <trip id="car191" depart="955.00" from="-E5" to="-E7" type="car_passenger"/>
    <trip id="car192" depart="960.00" from="-E7" to="-E5" type="car_passenger"/>
    <trip id="car193" depart="965.00" from="-E11" to="-E8" type="car_passenger"/>
    <trip id="car194" depart="970.00" from="E8" to="E2" type="car_passenger"/>
    <trip id="car195" depart="975.00" from="E7" to="E10" type="car_passenger"/>
    <trip id="car196" depart="980.00" from="-E5" to="E1" type="car_passenger"/>
    <trip id="car197" depart="985.00" from="-E0" to="-E4" type="car_passenger"/>
    <trip id="car198" depart="990.00" from="-E8" to="E1" type="car_passenger"/>
    <trip id="car199" depart="995.00" from="E11" to="-E9" type="car_passenger"/>
    <trip id="car200" depart="1000.00" from="-E8" to="-E3" type="car_passenger"/>
    <trip id="car201" depart="1005.00" from="-E9" to="E7" type="car_passenger"/>
    <trip id="car202" depart="1010.00" from="E5" to="-E2" type="car_passenger"/>
    <trip id="car203" depart="1015.00" from="-E10" to="E0" type="car_passenger"/>
    <trip id="car204" depart="1020.00" from="E11" to="-E6" type="car_passenger"/>
    <trip id="car205" depart="1025.00" from="E5" to="E4" type="car_passenger"/>
    <trip id="car206" depart="1030.00" from="E2" to="-E3" type="car_passenger"/>
    <trip id="car207" depart="1035.00" from="-E2" to="-E0" type="car_passenger"/>
    <trip id="car208" depart="1040.00" from="-E3" to="-E9" type="car_passenger"/>
    <trip id="car209" depart="1045.00" from="E6" to="-E1" type="car_passenger"/>
    <trip id="car210" depart="1050.00" from="-E7" to="E11" type="car_passenger"/>
    <trip id="car211" depart="1055.00" from="-E2" to="E2" type="car_passenger"/>
    <trip id="car212" depart="1060.00" from="-E9" to="-E3" type="car_passenger"/>
    <trip id="car213" depart="1065.00" from="E11" to="-E0" type="car_passenger"/>
    <trip id="car214" depart="1070.00" from="E4" to="E4" type="car_passenger"/>
    <trip id="car215" depart="1075.00" from="-E10" to="-E8" type="car_passenger"/>
    <trip id="car216" depart="1080.00" from="-E2" to="E8" type="car_passenger"/>
    <trip id="car217" depart="1085.00" from="E0" to="-E1" type="car_passenger"/>
    <trip id="car218" depart="1090.00" from="-E3" to="E6" type="car_passenger"/>
    <trip id="car219" depart="1095.00" from="-E8" to="E5" type="car_passenger"/>
    <trip id="car220" depart="1100.00" from="E2" to="E9" type="car_passenger"/>
    <trip id="car221" depart="1105.00" from="E10" to="E8" type="car_passenger"/>
    <trip id="car222" depart="1110.00" from="E7" to="E10" type="car_passenger"/>
    <trip id="car223" depart="1115.00" from="E3" to="E0" type="car_passenger"/>
    <trip id="car224" depart="1120.00" from="E5" to="E1" type="car_passenger"/>
    <trip id="car225" depart="1125.00" from="E7" to="E3" type="car_passenger"/>
    <trip id="car226" depart="1130.00" from="-E9" to="-E4" type="car_passenger"/>
    <trip id="car227" depart="1135.00" from="-E3" to="E11" type="car_passenger"/>
    <trip id="car228" depart="1140.00" from="E4" to="E0" type="car_passenger"/>
    <trip id="car229" depart="1145.00" from="E11" to="-E4" type="car_passenger"/>
    <trip id="car230" depart="1150.00" from="-E1" to="-E4" type="car_passenger"/>
    <trip id="car231" depart="1155.00" from="-E4" to="-E5" type="car_passenger"/>
    <trip id="car232" depart="1160.00" from="E0" to="-E11" type="car_passenger"/>
    <trip id="car233" depart="1165.00" from="-E3" to="E2" type="car_passenger"/>
    <trip id="car234" depart="1170.00" from="E2" to="-E1" type="car_passenger"/>
    <trip id="car235" depart="1175.00" from="-E7" to="E1" type="car_passenger"/>
    <trip id="car236" depart="1180.00" from="-E7" to="-E2" type="car_passenger"/>
    <trip id="car237" depart="1185.00" from="-E8" to="E7" type="car_passenger"/>
    <trip id="car238" depart="1190.00" from="E10" to="E2" type="car_passenger"/>
    <trip id="car239" depart="1195.00" from="E6" to="E4" type="car_passenger"/>
    <trip id="car240" depart="1200.00" from="-E7" to="-E0" type="car_passenger"/>
    <trip id="car241" depart="1205.00" from="-E6" to="E4" type="car_passenger"/>
    <trip id="car242" depart="1210.00" from="E6" to="E8" type="car_passenger"/>
    <trip id="car243" depart="1215.00" from="-E8" to="E3" type="car_passenger"/>
    <trip id="car244" depart="1220.00" from="E1" to="E10" type="car_passenger"/>
    <trip id="car245" depart="1225.00" from="-E3" to="-E3" type="car_passenger"/>
    <trip id="car246" depart="1230.00" from="-E8" to="-E0" type="car_passenger"/>
    <trip id="car247" depart="1235.00" from="-E6" to="E2" type="car_passenger"/>
    <trip id="car248" depart="1240.00" from="-E7" to="-E11" type="car_passenger"/>
    <trip id="car249" depart="1245.00" from="-E9" to="-E11" type="car_passenger"/>
    <trip id="car250" depart="1250.00" from="E10" to="-E0" type="car_passenger"/>
    <trip id="car251" depart="1255.00" from="-E7" to="E1" type="car_passenger"/>
    <trip id="car252" depart="1260.00" from="-E0" to="E11" type="car_passenger"/>
    <trip id="car253" depart="1265.00" from="-E11" to="-E9" type="car_passenger"/>
    <trip id="car254" depart="1270.00" from="-E1" to="-E7" type="car_passenger"/>
    <trip id="car255" depart="1275.00" from="-E3" to="-E5" type="car_passenger"/>
    <trip id="car256" depart="1280.00" from="E4" to="-E7" type="car_passenger"/>
    <trip id="car257" depart="1285.00" from="E4" to="E5" type="car_passenger"/>
    <trip id="car258" depart="1290.00" from="-E4" to="-E1" type="car_passenger"/>
    <trip id="car259" depart="1295.00" from="-E0" to="E0" type="car_passenger"/>
    <trip id="car260" depart="1300.00" from="E9" to="-E6" type="car_passenger"/>
    <trip id="car261" depart="1305.00" from="E11" to="E4" type="car_passenger"/>
    <trip id="car262" depart="1310.00" from="E11" to="E4" type="car_passenger"/>
    <trip id="car263" depart="1315.00" from="E8" to="-E2" type="car_passenger"/>
    <trip id="car264" depart="1320.00" from="-E0" to="-E11" type="car_passenger"/>
    <trip id="car265" depart="1325.00" from="-E11" to="E2" type="car_passenger"/>
    <trip id="car266" depart="1330.00" from="E1" to="-E3" type="car_passenger"/>
    <trip id="car267" depart="1335.00" from="E2" to="E4" type="car_passenger"/>
    <trip id="car268" depart="1340.00" from="-E2" to="E10" type="car_passenger"/>
    <trip id="car269" depart="1345.00" from="E3" to="-E10" type="car_passenger"/>
    <trip id="car270" depart="1350.00" from="E5" to="E9" type="car_passenger"/>
    <trip id="car271" depart="1355.00" from="-E10" to="-E0" type="car_passenger"/>
    <trip id="car272" depart="1360.00" from="-E5" to="E2" type="car_passenger"/>
    <trip id="car273" depart="1365.00" from="E8" to="-E7" type="car_passenger"/>
    <trip id="car274" depart="1370.00" from="E3" to="-E1" type="car_passenger"/>
    <trip id="car275" depart="1375.00" from="E2" to="E11" type="car_passenger"/>
    <trip id="car276" depart="1380.00" from="-E10" to="E4" type="car_passenger"/>
    <trip id="car277" depart="1385.00" from="E6" to="E10" type="car_passenger"/>
    <trip id="car278" depart="1390.00" from="-E10" to="E9" type="car_passenger"/>
    <trip id="car279" depart="1395.00" from="E4" to="-E6" type="car_passenger"/>
    <trip id="car280" depart="1400.00" from="-E8" to="-E6" type="car_passenger"/>
    <trip id="car281" depart="1405.00" from="E0" to="-E6" type="car_passenger"/>
    <trip id="car282" depart="1410.00" from="E6" to="E5" type="car_passenger"/>
    <trip id="car283" depart="1415.00" from="-E10" to="E9" type="car_passenger"/>
    <trip id="car284" depart="1420.00" from="E11" to="E5" type="car_passenger"/>
    <trip id="car285" depart="1425.00" from="E2" to="-E8" type="car_passenger"/>
    <trip id="car286" depart="1430.00" from="E3" to="E9" type="car_passenger"/>
    <trip id="car287" depart="1435.00" from="-E4" to="E5" type="car_passenger"/>
    <trip id="car288" depart="1440.00" from="E0" to="-E9" type="car_passenger"/>
    <trip id="car289" depart="1445.00" from="-E8" to="E3" type="car_passenger"/>
    <trip id="car290" depart="1450.00" from="-E4" to="E6" type="car_passenger"/>
    <trip id="car291" depart="1455.00" from="E5" to="-E10" type="car_passenger"/>
    <trip id="car292" depart="1460.00" from="E7" to="-E3" type="car_passenger"/>
    <trip id="car293" depart="1465.00" from="-E9" to="E10" type="car_passenger"/>
    <trip id="car294" depart="1470.00" from="-E7" to="-E0" type="car_passenger"/>
    <trip id="car295" depart="1475.00" from="E6" to="-E2" type="car_passenger"/>
    <trip id="car296" depart="1480.00" from="-E3" to="E5" type="car_passenger"/>
    <trip id="car297" depart="1485.00" from="-E6" to="E7" type="car_passenger"/>
    <trip id="car298" depart="1490.00" from="E2" to="-E4" type="car_passenger"/>
    <trip id="car299" depart="1495.00" from="-E0" to="E8" type="car_passenger"/>
    <trip id="car300" depart="1500.00" from="-E10" to="E3" type="car_passenger"/>
    <trip id="car301" depart="1505.00" from="-E9" to="E4" type="car_passenger"/>
    <trip id="car302" depart="1510.00" from="E2" to="E11" type="car_passenger"/>
    <trip id="car303" depart="1515.00" from="-E9" to="E5" type="car_passenger"/>
    <trip id="car304" depart="1520.00" from="-E10" to="-E3" type="car_passenger"/>
    <trip id="car305" depart="1525.00" from="E2" to="-E5" type="car_passenger"/>
    <trip id="car306" depart="1530.00" from="E1" to="-E9" type="car_passenger"/>
    <trip id="car307" depart="1535.00" from="E0" to="-E8" type="car_passenger"/>
    <trip id="car308" depart="1540.00" from="E3" to="-E5" type="car_passenger"/>
    <trip id="car309" depart="1545.00" from="E2" to="-E4" type="car_passenger"/>
    <trip id="car310" depart="1550.00" from="-E4" to="-E10" type="car_passenger"/>
    <trip id="car311" depart="1555.00" from="-E2" to="-E10" type="car_passenger"/>
    <trip id="car312" depart="1560.00" from="E0" to="E4" type="car_passenger"/>
    <trip id="car313" depart="1565.00" from="-E2" to="-E3" type="car_passenger"/>
    <trip id="car314" depart="1570.00" from="-E9" to="E3" type="car_passenger"/>
    <trip id="car315" depart="1575.00" from="E9" to="E0" type="car_passenger"/>
    <trip id="car316" depart="1580.00" from="-E4" to="-E10" type="car_passenger"/>
    <trip id="car317" depart="1585.00" from="-E2" to="-E3" type="car_passenger"/>
    <trip id="car318" depart="1590.00" from="-E2" to="-E0" type="car_passenger"/>
    <trip id="car319" depart="1595.00" from="E0" to="-E4" type="car_passenger"/>
    <trip id="car320" depart="1600.00" from="E9" to="E1" type="car_passenger"/>
    <trip id="car321" depart="1605.00" from="E2" to="-E11" type="car_passenger"/>
    <trip id="car322" depart="1610.00" from="E6" to="-E9" type="car_passenger"/>
    <trip id="car323" depart="1615.00" from="E6" to="E1" type="car_passenger"/>
    <trip id="car324" depart="1620.00" from="-E9" to="-E8" type="car_passenger"/>
    <trip id="car325" depart="1625.00" from="-E2" to="-E1" type="car_passenger"/>
    <trip id="car326" depart="1630.00" from="E8" to="-E9" type="car_passenger"/>
    <trip id="car327" depart="1635.00" from="E5" to="-E7" type="car_passenger"/>
    <trip id="car328" depart="1640.00" from="-E1" to="E11" type="car_passenger"/>
    <trip id="car329" depart="1645.00" from="-E1" to="-E11" type="car_passenger"/>
    <trip id="car330" depart="1650.00" from="E1" to="-E5" type="car_passenger"/>
    <trip id="car331" depart="1655.00" from="E9" to="-E10" type="car_passenger"/>
    <trip id="car332" depart="1660.00" from="E4" to="E10" type="car_passenger"/>
    <trip id="car333" depart="1665.00" from="E4" to="-E3" type="car_passenger"/>
    <trip id="car334" depart="1670.00" from="E0" to="-E8" type="car_passenger"/>
    <trip id="car335" depart="1675.00" from="-E8" to="E6" type="car_passenger"/>
    <trip id="car336" depart="1680.00" from="E9" to="-E5" type="car_passenger"/>
    <trip id="car337" depart="1685.00" from="E10" to="E10" type="car_passenger"/>
    <trip id="car338" depart="1690.00" from="E3" to="E8" type="car_passenger"/>
    <trip id="car339" depart="1695.00" from="-E2" to="-E3" type="car_passenger"/>
    <trip id="car340" depart="1700.00" from="E11" to="-E11" type="car_passenger"/>
    <trip id="car341" depart="1705.00" from="-E2" to="-E1" type="car_passenger"/>
    <trip id="car342" depart="1710.00" from="-E0" to="-E8" type="car_passenger"/>
    <trip id="car343" depart="1715.00" from="E10" to="-E4" type="car_passenger"/>
    <trip id="car344" depart="1720.00" from="-E3" to="E2" type="car_passenger"/>
    <trip id="car345" depart="1725.00" from="E2" to="-E8" type="car_passenger"/>
    <trip id="car346" depart="1730.00" from="E2" to="E8" type="car_passenger"/>
    <trip id="car347" depart="1735.00" from="E4" to="E11" type="car_passenger"/>
    <trip id="car348" depart="1740.00" from="E11" to="E8" type="car_passenger"/>
    <trip id="car349" depart="1745.00" from="-E8" to="E1" type="car_passenger"/>
    <trip id="car350" depart="1750.00" from="E11" to="E7" type="car_passenger"/>
    <trip id="car351" depart="1755.00" from="E5" to="-E1" type="car_passenger"/>
    <trip id="car352" depart="1760.00" from="-E11" to="-E5" type="car_passenger"/>
    <trip id="car353" depart="1765.00" from="E3" to="E1" type="car_passenger"/>
    <trip id="car354" depart="1770.00" from="-E4" to="-E10" type="car_passenger"/>
    <trip id="car355" depart="1775.00" from="E2" to="E2" type="car_passenger"/>
    <trip id="car356" depart="1780.00" from="E8" to="E0" type="car_passenger"/>
    <trip id="car357" depart="1785.00" from="-E9" to="-E1" type="car_passenger"/>
    <trip id="car358" depart="1790.00" from="-E0" to="-E8" type="car_passenger"/>
    <trip id="car359" depart="1795.00" from="-E5" to="-E4" type="car_passenger"/>
    <trip id="car360" depart="1800.00" from="-E10" to="E9" type="car_passenger"/>
    <trip id="car361" depart="1805.00" from="E6" to="E1" type="car_passenger"/>
    <trip id="car362" depart="1810.00" from="E8" to="E9" type="car_passenger"/>
    <trip id="car363" depart="1815.00" from="E2" to="-E4" type="car_passenger"/>
    <trip id="car364" depart="1820.00" from="-E0" to="E4" type="car_passenger"/>