<?xml version="1.0" encoding="UTF-8"?>

<!-- generated on 2024-06-20 01:37:05.170844 by randomTrips.py v1_20_0+0002-343658e7c64
<configuration>
    <net-file value="F:\Project\Thesis\Thesis\Sumo\traci\map4\map4.net.xml"/>
    <output-trip-file value="F:\Project\Thesis\Thesis\Sumo\traci\map4\motorcycle.trips.xml"/>
    <prefix value="motorcycle"/>
    <vehicle-class value="motorcycle"/>
    <insertion-rate value="720.0"/>
</configuration>
-->

<routes xmlns:xsi="http://www.w3.org/2001/XMLSchema-instance" xsi:noNamespaceSchemaLocation="http://sumo.dlr.de/xsd/routes_file.xsd">
    <vType id="motorcycle_motorcycle" vClass="motorcycle"/>
    <trip id="motorcycle0" depart="0.00" from="E11" to="-E0" type="motorcycle_motorcycle"/>
    <trip id="motorcycle1" depart="5.00" from="-E4" to="-E3" type="motorcycle_motorcycle"/>
    <trip id="motorcycle2" depart="10.00" from="E3" to="E2" type="motorcycle_motorcycle"/>
    <trip id="motorcycle3" depart="15.00" from="E7" to="-E10" type="motorcycle_motorcycle"/>
    <trip id="motorcycle4" depart="20.00" from="-E8" to="-E0" type="motorcycle_motorcycle"/>
    <trip id="motorcycle5" depart="25.00" from="-E3" to="E0" type="motorcycle_motorcycle"/>
    <trip id="motorcycle6" depart="30.00" from="-E0" to="-E2" type="motorcycle_motorcycle"/>
    <trip id="motorcycle7" depart="35.00" from="E11" to="E1" type="motorcycle_motorcycle"/>
    <trip id="motorcycle8" depart="40.00" from="-E3" to="E10" type="motorcycle_motorcycle"/>
    <trip id="motorcycle9" depart="45.00" from="E5" to="-E0" type="motorcycle_motorcycle"/>
    <trip id="motorcycle10" depart="50.00" from="E5" to="E2" type="motorcycle_motorcycle"/>
    <trip id="motorcycle11" depart="55.00" from="-E6" to="-E11" type="motorcycle_motorcycle"/>
    <trip id="motorcycle12" depart="60.00" from="E8" to="-E6" type="motorcycle_motorcycle"/>
    <trip id="motorcycle13" depart="65.00" from="-E10" to="-E10" type="motorcycle_motorcycle"/>
    <trip id="motorcycle14" depart="70.00" from="E6" to="E10" type="motorcycle_motorcycle"/>
    <trip id="motorcycle15" depart="75.00" from="E5" to="E3" type="motorcycle_motorcycle"/>
    <trip id="motorcycle16" depart="80.00" from="E0" to="E9" type="motorcycle_motorcycle"/>
    <trip id="motorcycle17" depart="85.00" from="-E7" to="E1" type="motorcycle_motorcycle"/>
    <trip id="motorcycle18" depart="90.00" from="E5" to="E10" type="motorcycle_motorcycle"/>
    <trip id="motorcycle19" depart="95.00" from="E6" to="E1" type="motorcycle_motorcycle"/>
    <trip id="motorcycle20" depart="100.00" from="E2" to="-E1" type="motorcycle_motorcycle"/>
    <trip id="motorcycle21" depart="105.00" from="-E3" to="-E4" type="motorcycle_motorcycle"/>
    <trip id="motorcycle22" depart="110.00" from="-E1" to="-E3" type="motorcycle_motorcycle"/>
    <trip id="motorcycle23" depart="115.00" from="-E10" to="-E4" type="motorcycle_motorcycle"/>
    <trip id="motorcycle24" depart="120.00" from="E11" to="-E6" type="motorcycle_motorcycle"/>
    <trip id="motorcycle25" depart="125.00" from="-E6" to="-E3" type="motorcycle_motorcycle"/>
    <trip id="motorcycle26" depart="130.00" from="-E4" to="E8" type="motorcycle_motorcycle"/>
    <trip id="motorcycle27" depart="135.00" from="E11" to="E10" type="motorcycle_motorcycle"/>
    <trip id="motorcycle28" depart="140.00" from="-E2" to="E3" type="motorcycle_motorcycle"/>
    <trip id="motorcycle29" depart="145.00" from="-E11" to="-E7" type="motorcycle_motorcycle"/>
    <trip id="motorcycle30" depart="150.00" from="E9" to="E11" type="motorcycle_motorcycle"/>
    <trip id="motorcycle31" depart="155.00" from="E1" to="E2" type="motorcycle_motorcycle"/>
    <trip id="motorcycle32" depart="160.00" from="E6" to="E4" type="motorcycle_motorcycle"/>
    <trip id="motorcycle33" depart="165.00" from="-E3" to="-E0" type="motorcycle_motorcycle"/>
    <trip id="motorcycle34" depart="170.00" from="-E5" to="-E4" type="motorcycle_motorcycle"/>
    <trip id="motorcycle35" depart="175.00" from="-E3" to="E8" type="motorcycle_motorcycle"/>
    <trip id="motorcycle36" depart="180.00" from="E7" to="-E5" type="motorcycle_motorcycle"/>
    <trip id="motorcycle37" depart="185.00" from="E11" to="-E7" type="motorcycle_motorcycle"/>
    <trip id="motorcycle38" depart="190.00" from="E7" to="-E9" type="motorcycle_motorcycle"/>
    <trip id="motorcycle39" depart="195.00" from="-E4" to="-E3" type="motorcycle_motorcycle"/>
    <trip id="motorcycle40" depart="200.00" from="E1" to="-E4" type="motorcycle_motorcycle"/>
    <trip id="motorcycle41" depart="205.00" from="E10" to="E7" type="motorcycle_motorcycle"/>
    <trip id="motorcycle42" depart="210.00" from="-E7" to="-E3" type="motorcycle_motorcycle"/>
    <trip id="motorcycle43" depart="215.00" from="E9" to="E0" type="motorcycle_motorcycle"/>
    <trip id="motorcycle44" depart="220.00" from="-E10" to="-E1" type="motorcycle_motorcycle"/>
    <trip id="motorcycle45" depart="225.00" from="-E10" to="E11" type="motorcycle_motorcycle"/>
    <trip id="motorcycle46" depart="230.00" from="E5" to="-E8" type="motorcycle_motorcycle"/>
    <trip id="motorcycle47" depart="235.00" from="-E1" to="-E7" type="motorcycle_motorcycle"/>
    <trip id="motorcycle48" depart="240.00" from="E9" to="E0" type="motorcycle_motorcycle"/>
    <trip id="motorcycle49" depart="245.00" from="E9" to="E6" type="motorcycle_motorcycle"/>
    <trip id="motorcycle50" depart="250.00" from="-E0" to="E3" type="motorcycle_motorcycle"/>
    <trip id="motorcycle51" depart="255.00" from="E2" to="E0" type="motorcycle_motorcycle"/>
    <trip id="motorcycle52" depart="260.00" from="-E4" to="E11" type="motorcycle_motorcycle"/>
    <trip id="motorcycle53" depart="265.00" from="-E10" to="-E8" type="motorcycle_motorcycle"/>
    <trip id="motorcycle54" depart="270.00" from="-E8" to="E8" type="motorcycle_motorcycle"/>
    <trip id="motorcycle55" depart="275.00" from="E7" to="-E4" type="motorcycle_motorcycle"/>
    <trip id="motorcycle56" depart="280.00" from="E0" to="-E2" type="motorcycle_motorcycle"/>
    <trip id="motorcycle57" depart="285.00" from="E7" to="E6" type="motorcycle_motorcycle"/>
    <trip id="motorcycle58" depart="290.00" from="-E5" to="E11" type="motorcycle_motorcycle"/>
    <trip id="motorcycle59" depart="295.00" from="E10" to="-E11" type="motorcycle_motorcycle"/>
    <trip id="motorcycle60" depart="300.00" from="E4" to="E0" type="motorcycle_motorcycle"/>
    <trip id="motorcycle61" depart="305.00" from="E4" to="E0" type="motorcycle_motorcycle"/>
    <trip id="motorcycle62" depart="310.00" from="-E0" to="-E5" type="motorcycle_motorcycle"/>
    <trip id="motorcycle63" depart="315.00" from="-E0" to="E8" type="motorcycle_motorcycle"/>
    <trip id="motorcycle64" depart="320.00" from="E7" to="E5" type="motorcycle_motorcycle"/>
    <trip id="motorcycle65" depart="325.00" from="-E5" to="-E1" type="motorcycle_motorcycle"/>
    <trip id="motorcycle66" depart="330.00" from="E7" to="E8" type="motorcycle_motorcycle"/>
    <trip id="motorcycle67" depart="335.00" from="-E10" to="-E9" type="motorcycle_motorcycle"/>
    <trip id="motorcycle68" depart="340.00" from="-E1" to="E4" type="motorcycle_motorcycle"/>
    <trip id="motorcycle69" depart="345.00" from="E4" to="-E11" type="motorcycle_motorcycle"/>
    <trip id="motorcycle70" depart="350.00" from="-E9" to="E1" type="motorcycle_motorcycle"/>
    <trip id="motorcycle71" depart="355.00" from="-E4" to="E6" type="motorcycle_motorcycle"/>
    <trip id="motorcycle72" depart="360.00" from="-E8" to="-E3" type="motorcycle_motorcycle"/>
    <trip id="motorcycle73" depart="365.00" from="E0" to="E3" type="motorcycle_motorcycle"/>
    <trip id="motorcycle74" depart="370.00" from="-E2" to="-E5" type="motorcycle_motorcycle"/>
    <trip id="motorcycle75" depart="375.00" from="E9" to="E11" type="motorcycle_motorcycle"/>
    <trip id="motorcycle76" depart="380.00" from="-E8" to="E0" type="motorcycle_motorcycle"/>
    <trip id="motorcycle77" depart="385.00" from="-E10" to="-E3" type="motorcycle_motorcycle"/>
    <trip id="motorcycle78" depart="390.00" from="-E6" to="E10" type="motorcycle_motorcycle"/>
    <trip id="motorcycle79" depart="395.00" from="-E3" to="-E3" type="motorcycle_motorcycle"/>
    <trip id="motorcycle80" depart="400.00" from="-E1" to="E11" type="motorcycle_motorcycle"/>
    <trip id="motorcycle81" depart="405.00" from="-E3" to="E7" type="motorcycle_motorcycle"/>
    <trip id="motorcycle82" depart="410.00" from="E6" to="-E1" type="motorcycle_motorcycle"/>
    <trip id="motorcycle83" depart="415.00" from="-E3" to="E2" type="motorcycle_motorcycle"/>
    <trip id="motorcycle84" depart="420.00" from="-E3" to="-E11" type="motorcycle_motorcycle"/>
    <trip id="motorcycle85" depart="425.00" from="E8" to="E1" type="motorcycle_motorcycle"/>
    <trip id="motorcycle86" depart="430.00" from="-E9" to="E4" type="motorcycle_motorcycle"/>
    <trip id="motorcycle87" depart="435.00" from="E5" to="-E2" type="motorcycle_motorcycle"/>
    <trip id="motorcycle88" depart="440.00" from="-E10" to="-E8" type="motorcycle_motorcycle"/>
    <trip id="motorcycle89" depart="445.00" from="-E8" to="-E9" type="motorcycle_motorcycle"/>
    <trip id="motorcycle90" depart="450.00" from="E3" to="E2" type="motorcycle_motorcycle"/>
    <trip id="motorcycle91" depart="455.00" from="E9" to="-E10" type="motorcycle_motorcycle"/>
    <trip id="motorcycle92" depart="460.00" from="-E7" to="-E6" type="motorcycle_motorcycle"/>
    <trip id="motorcycle93" depart="465.00" from="E6" to="-E3" type="motorcycle_motorcycle"/>
    <trip id="motorcycle94" depart="470.00" from="-E2" to="-E8" type="motorcycle_motorcycle"/>
    <trip id="motorcycle95" depart="475.00" from="-E8" to="-E4" type="motorcycle_motorcycle"/>
    <trip id="motorcycle96" depart="480.00" from="-E3" to="E8" type="motorcycle_motorcycle"/>
    <trip id="motorcycle97" depart="485.00" from="-E8" to="E6" type="motorcycle_motorcycle"/>
    <trip id="motorcycle98" depart="490.00" from="E1" to="-E1" type="motorcycle_motorcycle"/>
    <trip id="motorcycle99" depart="495.00" from="E9" to="E6" type="motorcycle_motorcycle"/>
    <trip id="motorcycle100" depart="500.00" from="E9" to="E8" type="motorcycle_motorcycle"/>
    <trip id="motorcycle101" depart="505.00" from="E6" to="-E11" type="motorcycle_motorcycle"/>
    <trip id="motorcycle102" depart="510.00" from="-E9" to="-E3" type="motorcycle_motorcycle"/>
    <trip id="motorcycle103" depart="515.00" from="-E7" to="-E1" type="motorcycle_motorcycle"/>
    <trip id="motorcycle104" depart="520.00" from="-E7" to="E9" type="motorcycle_motorcycle"/>
    <trip id="motorcycle105" depart="525.00" from="-E4" to="E4" type="motorcycle_motorcycle"/>
    <trip id="motorcycle106" depart="530.00" from="-E8" to="-E8" type="motorcycle_motorcycle"/>
    <trip id="motorcycle107" depart="535.00" from="E8" to="E9" type="motorcycle_motorcycle"/>
    <trip id="motorcycle108" depart="540.00" from="E1" to="E3" type="motorcycle_motorcycle"/>
    <trip id="motorcycle109" depart="545.00" from="-E11" to="-E5" type="motorcycle_motorcycle"/>
    <trip id="motorcycle110" depart="550.00" from="E9" to="E1" type="motorcycle_motorcycle"/>
    <trip id="motorcycle111" depart="555.00" from="E1" to="E3" type="motorcycle_motorcycle"/>
    <trip id="motorcycle112" depart="560.00" from="-E1" to="E10" type="motorcycle_motorcycle"/>
    <trip id="motorcycle113" depart="565.00" from="E0" to="E6" type="motorcycle_motorcycle"/>
    <trip id="motorcycle114" depart="570.00" from="-E11" to="E9" type="motorcycle_motorcycle"/>
    <trip id="motorcycle115" depart="575.00" from="-E1" to="-E2" type="motorcycle_motorcycle"/>
    <trip id="motorcycle116" depart="580.00" from="E10" to="E2" type="motorcycle_motorcycle"/>
    <trip id="motorcycle117" depart="585.00" from="-E3" to="-E10" type="motorcycle_motorcycle"/>
    <trip id="motorcycle118" depart="590.00" from="E7" to="-E3" type="motorcycle_motorcycle"/>
    <trip id="motorcycle119" depart="595.00" from="E10" to="E10" type="motorcycle_motorcycle"/>
    <trip id="motorcycle120" depart="600.00" from="-E8" to="E10" type="motorcycle_motorcycle"/>
    <trip id="motorcycle121" depart="605.00" from="E0" to="E8" type="motorcycle_motorcycle"/>
    <trip id="motorcycle122" depart="610.00" from="-E2" to="E3" type="motorcycle_motorcycle"/>
    <trip id="motorcycle123" depart="615.00" from="-E3" to="-E7" type="motorcycle_motorcycle"/>
    <trip id="motorcycle124" depart="620.00" from="E2" to="-E5" type="motorcycle_motorcycle"/>
    <trip id="motorcycle125" depart="625.00" from="-E5" to="E4" type="motorcycle_motorcycle"/>
    <trip id="motorcycle126" depart="630.00" from="-E1" to="-E8" type="motorcycle_motorcycle"/>
    <trip id="motorcycle127" depart="635.00" from="E9" to="E9" type="motorcycle_motorcycle"/>
    <trip id="motorcycle128" depart="640.00" from="-E1" to="-E3" type="motorcycle_motorcycle"/>
    <trip id="motorcycle129" depart="645.00" from="-E4" to="E8" type="motorcycle_motorcycle"/>
    <trip id="motorcycle130" depart="650.00" from="E7" to="E7" type="motorcycle_motorcycle"/>
    <trip id="motorcycle131" depart="655.00" from="-E6" to="-E11" type="motorcycle_motorcycle"/>
    <trip id="motorcycle132" depart="660.00" from="E6" to="E2" type="motorcycle_motorcycle"/>
    <trip id="motorcycle133" depart="665.00" from="E10" to="E9" type="motorcycle_motorcycle"/>
    <trip id="motorcycle134" depart="670.00" from="E11" to="-E0" type="motorcycle_motorcycle"/>
    <trip id="motorcycle135" depart="675.00" from="E5" to="-E5" type="motorcycle_motorcycle"/>
    <trip id="motorcycle136" depart="680.00" from="E11" to="E8" type="motorcycle_motorcycle"/>
    <trip id="motorcycle137" depart="685.00" from="-E11" to="-E10" type="motorcycle_motorcycle"/>
    <trip id="motorcycle138" depart="690.00" from="-E10" to="E1" type="motorcycle_motorcycle"/>
    <trip id="motorcycle139" depart="695.00" from="-E4" to="E10" type="motorcycle_motorcycle"/>
    <trip id="motorcycle140" depart="700.00" from="E3" to="-E2" type="motorcycle_motorcycle"/>
    <trip id="motorcycle141" depart="705.00" from="E11" to="-E4" type="motorcycle_motorcycle"/>
    <trip id="motorcycle142" depart="710.00" from="-E9" to="E7" type="motorcycle_motorcycle"/>
    <trip id="motorcycle143" depart="715.00" from="E6" to="-E10" type="motorcycle_motorcycle"/>
    <trip id="motorcycle144" depart="720.00" from="-E8" to="-E4" type="motorcycle_motorcycle"/>
    <trip id="motorcycle145" depart="725.00" from="-E0" to="E4" type="motorcycle_motorcycle"/>
    <trip id="motorcycle146" depart="730.00" from="E11" to="-E4" type="motorcycle_motorcycle"/>
    <trip id="motorcycle147" depart="735.00" from="E3" to="E1" type="motorcycle_motorcycle"/>
    <trip id="motorcycle148" depart="740.00" from="-E8" to="-E0" type="motorcycle_motorcycle"/>
    <trip id="motorcycle149" depart="745.00" from="-E1" to="E7" type="motorcycle_motorcycle"/>
    <trip id="motorcycle150" depart="750.00" from="E7" to="E1" type="motorcycle_motorcycle"/>
    <trip id="motorcycle151" depart="755.00" from="E6" to="E1" type="motorcycle_motorcycle"/>
    <trip id="motorcycle152" depart="760.00" from="-E11" to="-E11" type="motorcycle_motorcycle"/>
    <trip id="motorcycle153" depart="765.00" from="-E5" to="E7" type="motorcycle_motorcycle"/>
    <trip id="motorcycle154" depart="770.00" from="E5" to="E6" type="motorcycle_motorcycle"/>
    <trip id="motorcycle155" depart="775.00" from="E7" to="-E3" type="motorcycle_motorcycle"/>
    <trip id="motorcycle156" depart="780.00" from="-E3" to="-E10" type="motorcycle_motorcycle"/>
    <trip id="motorcycle157" depart="785.00" from="E4" to="E7" type="motorcycle_motorcycle"/>
    <trip id="motorcycle158" depart="790.00" from="-E7" to="E10" type="motorcycle_motorcycle"/>
    <trip id="motorcycle159" depart="795.00" from="-E11" to="E8" type="motorcycle_motorcycle"/>
    <trip id="motorcycle160" depart="800.00" from="E6" to="E9" type="motorcycle_motorcycle"/>
    <trip id="motorcycle161" depart="805.00" from="E5" to="E7" type="motorcycle_motorcycle"/>
    <trip id="motorcycle162" depart="810.00" from="-E0" to="E3" type="motorcycle_motorcycle"/>
    <trip id="motorcycle163" depart="815.00" from="-E5" to="E8" type="motorcycle_motorcycle"/>
    <trip id="motorcycle164" depart="820.00" from="E5" to="E6" type="motorcycle_motorcycle"/>
    <trip id="motorcycle165" depart="825.00" from="E5" to="-E4" type="motorcycle_motorcycle"/>
    <trip id="motorcycle166" depart="830.00" from="E4" to="-E10" type="motorcycle_motorcycle"/>
    <trip id="motorcycle167" depart="835.00" from="E6" to="E6" type="motorcycle_motorcycle"/>
    <trip id="motorcycle168" depart="840.00" from="-E3" to="E5" type="motorcycle_motorcycle"/>
    <trip id="motorcycle169" depart="845.00" from="-E9" to="-E5" type="motorcycle_motorcycle"/>
    <trip id="motorcycle170" depart="850.00" from="E5" to="-E3" type="motorcycle_motorcycle"/>
    <trip id="motorcycle171" depart="855.00" from="-E0" to="-E2" type="motorcycle_motorcycle"/>
    <trip id="motorcycle172" depart="860.00" from="-E5" to="E6" type="motorcycle_motorcycle"/>
    <trip id="motorcycle173" depart="865.00" from="E9" to="-E4" type="motorcycle_motorcycle"/>
    <trip id="motorcycle174" depart="870.00" from="E11" to="-E7" type="motorcycle_motorcycle"/>
    <trip id="motorcycle175" depart="875.00" from="E9" to="E0" type="motorcycle_motorcycle"/>
    <trip id="motorcycle176" depart="880.00" from="E8" to="-E10" type="motorcycle_motorcycle"/>
    <trip id="motorcycle177" depart="885.00" from="E9" to="-E2" type="motorcycle_motorcycle"/>
    <trip id="motorcycle178" depart="890.00" from="E9" to="-E4" type="motorcycle_motorcycle"/>
    <trip id="motorcycle179" depart="895.00" from="-E10" to="-E8" type="motorcycle_motorcycle"/>
    <trip id="motorcycle180" depart="900.00" from="E3" to="-E5" type="motorcycle_motorcycle"/>
    <trip id="motorcycle181" depart="905.00" from="E10" to="E0" type="motorcycle_motorcycle"/>
    <trip id="motorcycle182" depart="910.00" from="-E7" to="E1" type="motorcycle_motorcycle"/>
    <trip id="motorcycle183" depart="915.00" from="-E4" to="E3" type="motorcycle_motorcycle"/>
    <trip id="motorcycle184" depart="920.00" from="-E0" to="E8" type="motorcycle_motorcycle"/>
    <trip id="motorcycle185" depart="925.00" from="E0" to="E3" type="motorcycle_motorcycle"/>
    <trip id="motorcycle186" depart="930.00" from="E3" to="E2" type="motorcycle_motorcycle"/>
    <trip id="motorcycle187" depart="935.00" from="-E6" to="-E1" type="motorcycle_motorcycle"/>
    <trip id="motorcycle188" depart="940.00" from="E11" to="-E5" type="motorcycle_motorcycle"/>
    <trip id="motorcycle189" depart="945.00" from="-E5" to="E6" type="motorcycle_motorcycle"/>
    <trip id="motorcycle190" depart="950.00" from="E3" to="-E5" type="motorcycle_motorcycle"/>
    <trip id="motorcycle191" depart="955.00" from="-E5" to="-E7" type="motorcycle_motorcycle"/>
    <trip id="motorcycle192" depart="960.00" from="-E7" to="-E5" type="motorcycle_motorcycle"/>
    <trip id="motorcycle193" depart="965.00" from="-E11" to="-E8" type="motorcycle_motorcycle"/>
    <trip id="motorcycle194" depart="970.00" from="E8" to="E2" type="motorcycle_motorcycle"/>
    <trip id="motorcycle195" depart="975.00" from="E7" to="E10" type="motorcycle_motorcycle"/>
    <trip id="motorcycle196" depart="980.00" from="-E5" to="E1" type="motorcycle_motorcycle"/>
    <trip id="motorcycle197" depart="985.00" from="-E0" to="-E4" type="motorcycle_motorcycle"/>
    <trip id="motorcycle198" depart="990.00" from="-E8" to="E1" type="motorcycle_motorcycle"/>
    <trip id="motorcycle199" depart="995.00" from="E11" to="-E9" type="motorcycle_motorcycle"/>
    <trip id="motorcycle200" depart="1000.00" from="-E8" to="-E3" type="motorcycle_motorcycle"/>
    <trip id="motorcycle201" depart="1005.00" from="-E9" to="E7" type="motorcycle_motorcycle"/>
    <trip id="motorcycle202" depart="1010.00" from="E5" to="-E2" type="motorcycle_motorcycle"/>
    <trip id="motorcycle203" depart="1015.00" from="-E10" to="E0" type="motorcycle_motorcycle"/>
    <trip id="motorcycle204" depart="1020.00" from="E11" to="-E6" type="motorcycle_motorcycle"/>
    <trip id="motorcycle205" depart="1025.00" from="E5" to="E4" type="motorcycle_motorcycle"/>
    <trip id="motorcycle206" depart="1030.00" from="E2" to="-E3" type="motorcycle_motorcycle"/>
    <trip id="motorcycle207" depart="1035.00" from="-E2" to="-E0" type="motorcycle_motorcycle"/>
    <trip id="motorcycle208" depart="1040.00" from="-E3" to="-E9" type="motorcycle_motorcycle"/>
    <trip id="motorcycle209" depart="1045.00" from="E6" to="-E1" type="motorcycle_motorcycle"/>
    <trip id="motorcycle210" depart="1050.00" from="-E7" to="E11" type="motorcycle_motorcycle"/>
    <trip id="motorcycle211" depart="1055.00" from="-E2" to="E2" type="motorcycle_motorcycle"/>
    <trip id="motorcycle212" depart="1060.00" from="-E9" to="-E3" type="motorcycle_motorcycle"/>
    <trip id="motorcycle213" depart="1065.00" from="E11" to="-E0" type="motorcycle_motorcycle"/>
    <trip id="motorcycle214" depart="1070.00" from="E4" to="E4" type="motorcycle_motorcycle"/>
    <trip id="motorcycle215" depart="1075.00" from="-E10" to="-E8" type="motorcycle_motorcycle"/>
    <trip id="motorcycle216" depart="1080.00" from="-E2" to="E8" type="motorcycle_motorcycle"/>
    <trip id="motorcycle217" depart="1085.00" from="E0" to="-E1" type="motorcycle_motorcycle"/>
    <trip id="motorcycle218" depart="1090.00" from="-E3" to="E6" type="motorcycle_motorcycle"/>
    <trip id="motorcycle219" depart="1095.00" from="-E8" to="E5" type="motorcycle_motorcycle"/>
    <trip id="motorcycle220" depart="1100.00" from="E2" to="E9" type="motorcycle_motorcycle"/>
    <trip id="motorcycle221" depart="1105.00" from="E10" to="E8" type="motorcycle_motorcycle"/>
    <trip id="motorcycle222" depart="1110.00" from="E7" to="E10" type="motorcycle_motorcycle"/>
    <trip id="motorcycle223" depart="1115.00" from="E3" to="E0" type="motorcycle_motorcycle"/>
    <trip id="motorcycle224" depart="1120.00" from="E5" to="E1" type="motorcycle_motorcycle"/>
    <trip id="motorcycle225" depart="1125.00" from="E7" to="E3" type="motorcycle_motorcycle"/>
    <trip id="motorcycle226" depart="1130.00" from="-E9" to="-E4" type="motorcycle_motorcycle"/>
    <trip id="motorcycle227" depart="1135.00" from="-E3" to="E11" type="motorcycle_motorcycle"/>
    <trip id="motorcycle228" depart="1140.00" from="E4" to="E0" type="motorcycle_motorcycle"/>
    <trip id="motorcycle229" depart="1145.00" from="E11" to="-E4" type="motorcycle_motorcycle"/>
    <trip id="motorcycle230" depart="1150.00" from="-E1" to="-E4" type="motorcycle_motorcycle"/>
    <trip id="motorcycle231" depart="1155.00" from="-E4" to="-E5" type="motorcycle_motorcycle"/>
    <trip id="motorcycle232" depart="1160.00" from="E0" to="-E11" type="motorcycle_motorcycle"/>
    <trip id="motorcycle233" depart="1165.00" from="-E3" to="E2" type="motorcycle_motorcycle"/>
    <trip id="motorcycle234" depart="1170.00" from="E2" to="-E1" type="motorcycle_motorcycle"/>
    <trip id="motorcycle235" depart="1175.00" from="-E7" to="E1" type="motorcycle_motorcycle"/>
    <trip id="motorcycle236" depart="1180.00" from="-E7" to="-E2" type="motorcycle_motorcycle"/>
    <trip id="motorcycle237" depart="1185.00" from="-E8" to="E7" type="motorcycle_motorcycle"/>
    <trip id="motorcycle238" depart="1190.00" from="E10" to="E2" type="motorcycle_motorcycle"/>
    <trip id="motorcycle239" depart="1195.00" from="E6" to="E4" type="motorcycle_motorcycle"/>
    <trip id="motorcycle240" depart="1200.00" from="-E7" to="-E0" type="motorcycle_motorcycle"/>
    <trip id="motorcycle241" depart="1205.00" from="-E6" to="E4" type="motorcycle_motorcycle"/>
    <trip id="motorcycle242" depart="1210.00" from="E6" to="E8" type="motorcycle_motorcycle"/>
    <trip id="motorcycle243" depart="1215.00" from="-E8" to="E3" type="motorcycle_motorcycle"/>
    <trip id="motorcycle244" depart="1220.00" from="E1" to="E10" type="motorcycle_motorcycle"/>
    <trip id="motorcycle245" depart="1225.00" from="-E3" to="-E3" type="motorcycle_motorcycle"/>
    <trip id="motorcycle246" depart="1230.00" from="-E8" to="-E0" type="motorcycle_motorcycle"/>
    <trip id="motorcycle247" depart="1235.00" from="-E6" to="E2" type="motorcycle_motorcycle"/>
    <trip id="motorcycle248" depart="1240.00" from="-E7" to="-E11" type="motorcycle_motorcycle"/>
    <trip id="motorcycle249" depart="1245.00" from="-E9" to="-E11" type="motorcycle_motorcycle"/>
    <trip id="motorcycle250" depart="1250.00" from="E10" to="-E0" type="motorcycle_motorcycle"/>
    <trip id="motorcycle251" depart="1255.00" from="-E7" to="E1" type="motorcycle_motorcycle"/>
    <trip id="motorcycle252" depart="1260.00" from="-E0" to="E11" type="motorcycle_motorcycle"/>
    <trip id="motorcycle253" depart="1265.00" from="-E11" to="-E9" type="motorcycle_motorcycle"/>
    <trip id="motorcycle254" depart="1270.00" from="-E1" to="-E7" type="motorcycle_motorcycle"/>
    <trip id="motorcycle255" depart="1275.00" from="-E3" to="-E5" type="motorcycle_motorcycle"/>
    <trip id="motorcycle256" depart="1280.00" from="E4" to="-E7" type="motorcycle_motorcycle"/>
    <trip id="motorcycle257" depart="1285.00" from="E4" to="E5" type="motorcycle_motorcycle"/>
    <trip id="motorcycle258" depart="1290.00" from="-E4" to="-E1" type="motorcycle_motorcycle"/>
    <trip id="motorcycle259" depart="1295.00" from="-E0" to="E0" type="motorcycle_motorcycle"/>
    <trip id="motorcycle260" depart="1300.00" from="E9" to="-E6" type="motorcycle_motorcycle"/>
    <trip id="motorcycle261" depart="1305.00" from="E11" to="E4" type="motorcycle_motorcycle"/>
    <trip id="motorcycle262" depart="1310.00" from="E11" to="E4" type="motorcycle_motorcycle"/>
    <trip id="motorcycle263" depart="1315.00" from="E8" to="-E2" type="motorcycle_motorcycle"/>
    <trip id="motorcycle264" depart="1320.00" from="-E0" to="-E11" type="motorcycle_motorcycle"/>
    <trip id="motorcycle265" depart="1325.00" from="-E11" to="E2" type="motorcycle_motorcycle"/>
    <trip id="motorcycle266" depart="1330.00" from="E1" to="-E3" type="motorcycle_motorcycle"/>
    <trip id="motorcycle267" depart="1335.00" from="E2" to="E4" type="motorcycle_motorcycle"/>
    <trip id="motorcycle268" depart="1340.00" from="-E2" to="E10" type="motorcycle_motorcycle"/>
    <trip id="motorcycle269" depart="1345.00" from="E3" to="-E10" type="motorcycle_motorcycle"/>
    <trip id="motorcycle270" depart="1350.00" from="E5" to="E9" type="motorcycle_motorcycle"/>
    <trip id="motorcycle271" depart="1355.00" from="-E10" to="-E0" type="motorcycle_motorcycle"/>
    <trip id="motorcycle272" depart="1360.00" from="-E5" to="E2" type="motorcycle_motorcycle"/>
    <trip id="motorcycle273" depart="1365.00" from="E8" to="-E7" type="motorcycle_motorcycle"/>
    <trip id="motorcycle274" depart="1370.00" from="E3" to="-E1" type="motorcycle_motorcycle"/>
    <trip id="motorcycle275" depart="1375.00" from="E2" to="E11" type="motorcycle_motorcycle"/>
    <trip id="motorcycle276" depart="1380.00" from="-E10" to="E4" type="motorcycle_motorcycle"/>
    <trip id="motorcycle277" depart="1385.00" from="E6" to="E10" type="motorcycle_motorcycle"/>
    <trip id="motorcycle278" depart="1390.00" from="-E10" to="E9" type="motorcycle_motorcycle"/>
    <trip id="motorcycle279" depart="1395.00" from="E4" to="-E6" type="motorcycle_motorcycle"/>
    <trip id="motorcycle280" depart="1400.00" from="-E8" to="-E6" type="motorcycle_motorcycle"/>
    <trip id="motorcycle281" depart="1405.00" from="E0" to="-E6" type="motorcycle_motorcycle"/>
    <trip id="motorcycle282" depart="1410.00" from="E6" to="E5" type="motorcycle_motorcycle"/>
    <trip id="motorcycle283" depart="1415.00" from="-E10" to="E9" type="motorcycle_motorcycle"/>
    <trip id="motorcycle284" depart="1420.00" from="E11" to="E5" type="motorcycle_motorcycle"/>
    <trip id="motorcycle285" depart="1425.00" from="E2" to="-E8" type="motorcycle_motorcycle"/>
    <trip id="motorcycle286" depart="1430.00" from="E3" to="E9" type="motorcycle_motorcycle"/>
    <trip id="motorcycle287" depart="1435.00" from="-E4" to="E5" type="motorcycle_motorcycle"/>
    <trip id="motorcycle288" depart="1440.00" from="E0" to="-E9" type="motorcycle_motorcycle"/>
    <trip id="motorcycle289" depart="1445.00" from="-E8" to="E3" type="motorcycle_motorcycle"/>
    <trip id="motorcycle290" depart="1450.00" from="-E4" to="E6" type="motorcycle_motorcycle"/>
    <trip id="motorcycle291" depart="1455.00" from="E5" to="-E10" type="motorcycle_motorcycle"/>
    <trip id="motorcycle292" depart="1460.00" from="E7" to="-E3" type="motorcycle_motorcycle"/>
    <trip id="motorcycle293" depart="1465.00" from="-E9" to="E10" type="motorcycle_motorcycle"/>
    <trip id="motorcycle294" depart="1470.00" from="-E7" to="-E0" type="motorcycle_motorcycle"/>
    <trip id="motorcycle295" depart="1475.00" from="E6" to="-E2" type="motorcycle_motorcycle"/>
    <trip id="motorcycle296" depart="1480.00" from="-E3" to="E5" type="motorcycle_motorcycle"/>
    <trip id="motorcycle297" depart="1485.00" from="-E6" to="E7" type="motorcycle_motorcycle"/>
    <trip id="motorcycle298" depart="1490.00" from="E2" to="-E4" type="motorcycle_motorcycle"/>
    <trip id="motorcycle299" depart="1495.00" from="-E0" to="E8" type="motorcycle_motorcycle"/>
    <trip id="motorcycle300" depart="1500.00" from="-E10" to="E3" type="motorcycle_motorcycle"/>
    <trip id="motorcycle301" depart="1505.00" from="-E9" to="E4" type="motorcycle_motorcycle"/>
    <trip id="motorcycle302" depart="1510.00" from="E2" to="E11" type="motorcycle_motorcycle"/>
    <trip id="motorcycle303" depart="1515.00" from="-E9" to="E5" type="motorcycle_motorcycle"/>
    <trip id="motorcycle304" depart="1520.00" from="-E10" to="-E3" type="motorcycle_motorcycle"/>
    <trip id="motorcycle305" depart="1525.00" from="E2" to="-E5" type="motorcycle_motorcycle"/>
    <trip id="motorcycle306" depart="1530.00" from="E1" to="-E9" type="motorcycle_motorcycle"/>
    <trip id="motorcycle307" depart="1535.00" from="E0" to="-E8" type="motorcycle_motorcycle"/>