<?xml version="1.0" encoding="UTF-8"?>

<!-- generated on 2024-06-20 01:37:42.040254 by randomTrips.py v1_20_0+0002-343658e7c64
<configuration>
    <net-file value="F:\Project\Thesis\Thesis\Sumo\traci\map4\map4.net.xml"/>
    <output-trip-file value="F:\Project\Thesis\Thesis\Sumo\traci\map4\truck.trips.xml"/>
    <prefix value="truck"/>
    <vehicle-class value="truck"/>
    <insertion-rate value="720.0"/>
</configuration>
-->

<routes xmlns:xsi="http://www.w3.org/2001/XMLSchema-instance" xsi:noNamespaceSchemaLocation="http://sumo.dlr.de/xsd/routes_file.xsd">
    <vType id="truck_truck" vClass="truck"/>
    <trip id="truck0" depart="0.00" from="E11" to="-E0" type="truck_truck"/>
    <trip id="truck1" depart="5.00" from="-E4" to="-E3" type="truck_truck"/>
    <trip id="truck2" depart="10.00" from="E3" to="E2" type="truck_truck"/>
    <trip id="truck3" depart="15.00" from="E7" to="-E10" type="truck_truck"/>
    <trip id="truck4" depart="20.00" from="-E8" to="-E0" type="truck_truck"/>
    <trip id="truck5" depart="25.00" from="-E3" to="E0" type="truck_truck"/>
    <trip id="truck6" depart="30.00" from="-E0" to="-E2" type="truck_truck"/>
    <trip id="truck7" depart="35.00" from="E11" to="E1" type="truck_truck"/>
    <trip id="truck8" depart="40.00" from="-E3" to="E10" type="truck_truck"/>
    <trip id="truck9" depart="45.00" from="E5" to="-E0" type="truck_truck"/>
    <trip id="truck10" depart="50.00" from="E5" to="E2" type="truck_truck"/>
    <trip id="truck11" depart="55.00" from="-E6" to="-E11" type="truck_truck"/>
    <trip id="truck12" depart="60.00" from="E8" to="-E6" type="truck_truck"/>
    <trip id="truck13" depart="65.00" from="-E10" to="-E10" type="truck_truck"/>
    <trip id="truck14" depart="70.00" from="E6" to="E10" type="truck_truck"/>
    <trip id="truck15" depart="75.00" from="E5" to="E3" type="truck_truck"/>
    <trip id="truck16" depart="80.00" from="E0" to="E9" type="truck_truck"/>
    <trip id="truck17" depart="85.00" from="-E7" to="E1" type="truck_truck"/>
    <trip id="truck18" depart="90.00" from="E5" to="E10" type="truck_truck"/>
    <trip id="truck19" depart="95.00" from="E6" to="E1" type="truck_truck"/>
    <trip id="truck20" depart="100.00" from="E2" to="-E1" type="truck_truck"/>
    <trip id="truck21" depart="105.00" from="-E3" to="-E4" type="truck_truck"/>
    <trip id="truck22" depart="110.00" from="-E1" to="-E3" type="truck_truck"/>
    <trip id="truck23" depart="115.00" from="-E10" to="-E4" type="truck_truck"/>
    <trip id="truck24" depart="120.00" from="E11" to="-E6" type="truck_truck"/>
    <trip id="truck25" depart="125.00" from="-E6" to="-E3" type="truck_truck"/>
    <trip id="truck26" depart="130.00" from="-E4" to="E8" type="truck_truck"/>
    <trip id="truck27" depart="135.00" from="E11" to="E10" type="truck_truck"/>
    <trip id="truck28" depart="140.00" from="-E2" to="E3" type="truck_truck"/>
    <trip id="truck29" depart="145.00" from="-E11" to="-E7" type="truck_truck"/>
    <trip id="truck30" depart="150.00" from="E9" to="E11" type="truck_truck"/>
    <trip id="truck31" depart="155.00" from="E1" to="E2" type="truck_truck"/>
    <trip id="truck32" depart="160.00" from="E6" to="E4" type="truck_truck"/>
    <trip id="truck33" depart="165.00" from="-E3" to="-E0" type="truck_truck"/>
    <trip id="truck34" depart="170.00" from="-E5" to="-E4" type="truck_truck"/>
    <trip id="truck35" depart="175.00" from="-E3" to="E8" type="truck_truck"/>
    <trip id="truck36" depart="180.00" from="E7" to="-E5" type="truck_truck"/>
    <trip id="truck37" depart="185.00" from="E11" to="-E7" type="truck_truck"/>
    <trip id="truck38" depart="190.00" from="E7" to="-E9" type="truck_truck"/>
    <trip id="truck39" depart="195.00" from="-E4" to="-E3" type="truck_truck"/>
    <trip id="truck40" depart="200.00" from="E1" to="-E4" type="truck_truck"/>
    <trip id="truck41" depart="205.00" from="E10" to="E7" type="truck_truck"/>
    <trip id="truck42" depart="210.00" from="-E7" to="-E3" type="truck_truck"/>
    <trip id="truck43" depart="215.00" from="E9" to="E0" type="truck_truck"/>
    <trip id="truck44" depart="220.00" from="-E10" to="-E1" type="truck_truck"/>
    <trip id="truck45" depart="225.00" from="-E10" to="E11" type="truck_truck"/>
    <trip id="truck46" depart="230.00" from="E5" to="-E8" type="truck_truck"/>
    <trip id="truck47" depart="235.00" from="-E1" to="-E7" type="truck_truck"/>
    <trip id="truck48" depart="240.00" from="E9" to="E0" type="truck_truck"/>
    <trip id="truck49" depart="245.00" from="E9" to="E6" type="truck_truck"/>
    <trip id="truck50" depart="250.00" from="-E0" to="E3" type="truck_truck"/>
    <trip id="truck51" depart="255.00" from="E2" to="E0" type="truck_truck"/>
    <trip id="truck52" depart="260.00" from="-E4" to="E11" type="truck_truck"/>
    <trip id="truck53" depart="265.00" from="-E10" to="-E8" type="truck_truck"/>
    <trip id="truck54" depart="270.00" from="-E8" to="E8" type="truck_truck"/>
    <trip id="truck55" depart="275.00" from="E7" to="-E4" type="truck_truck"/>
    <trip id="truck56" depart="280.00" from="E0" to="-E2" type="truck_truck"/>
    <trip id="truck57" depart="285.00" from="E7" to="E6" type="truck_truck"/>
    <trip id="truck58" depart="290.00" from="-E5" to="E11" type="truck_truck"/>
    <trip id="truck59" depart="295.00" from="E10" to="-E11" type="truck_truck"/>
    <trip id="truck60" depart="300.00" from="E4" to="E0" type="truck_truck"/>
    <trip id="truck61" depart="305.00" from="E4" to="E0" type="truck_truck"/>
    <trip id="truck62" depart="310.00" from="-E0" to="-E5" type="truck_truck"/>
    <trip id="truck63" depart="315.00" from="-E0" to="E8" type="truck_truck"/>
    <trip id="truck64" depart="320.00" from="E7" to="E5" type="truck_truck"/>
    <trip id="truck65" depart="325.00" from="-E5" to="-E1" type="truck_truck"/>
    <trip id="truck66" depart="330.00" from="E7" to="E8" type="truck_truck"/>
    <trip id="truck67" depart="335.00" from="-E10" to="-E9" type="truck_truck"/>
    <trip id="truck68" depart="340.00" from="-E1" to="E4" type="truck_truck"/>
    <trip id="truck69" depart="345.00" from="E4" to="-E11" type="truck_truck"/>
    <trip id="truck70" depart="350.00" from="-E9" to="E1" type="truck_truck"/>
    <trip id="truck71" depart="355.00" from="-E4" to="E6" type="truck_truck"/>
    <trip id="truck72" depart="360.00" from="-E8" to="-E3" type="truck_truck"/>
    <trip id="truck73" depart="365.00" from="E0" to="E3" type="truck_truck"/>
    <trip id="truck74" depart="370.00" from="-E2" to="-E5" type="truck_truck"/>
    <trip id="truck75" depart="375.00" from="E9" to="E11" type="truck_truck"/>
    <trip id="truck76" depart="380.00" from="-E8" to="E0" type="truck_truck"/>
    <trip id="truck77" depart="385.00" from="-E10" to="-E3" type="truck_truck"/>
    <trip id="truck78" depart="390.00" from="-E6" to="E10" type="truck_truck"/>
    <trip id="truck79" depart="395.00" from="-E3" to="-E3" type="truck_truck"/>
    <trip id="truck80" depart="400.00" from="-E1" to="E11" type="truck_truck"/>
    <trip id="truck81" depart="405.00" from="-E3" to="E7" type="truck_truck"/>
    <trip id="truck82" depart="410.00" from="E6" to="-E1" type="truck_truck"/>
    <trip id="truck83" depart="415.00" from="-E3" to="E2" type="truck_truck"/>
    <trip id="truck84" depart="420.00" from="-E3" to="-E11" type="truck_truck"/>
    <trip id="truck85" depart="425.00" from="E8" to="E1" type="truck_truck"/>
    <trip id="truck86" depart="430.00" from="-E9" to="E4" type="truck_truck"/>
    <trip id="truck87" depart="435.00" from="E5" to="-E2" type="truck_truck"/>
    <trip id="truck88" depart="440.00" from="-E10" to="-E8" type="truck_truck"/>
    <trip id="truck89" depart="445.00" from="-E8" to="-E9" type="truck_truck"/>
    <trip id="truck90" depart="450.00" from="E3" to="E2" type="truck_truck"/>
    <trip id="truck91" depart="455.00" from="E9" to="-E10" type="truck_truck"/>
    <trip id="truck92" depart="460.00" from="-E7" to="-E6" type="truck_truck"/>
    <trip id="truck93" depart="465.00" from="E6" to="-E3" type="truck_truck"/>
    <trip id="truck94" depart="470.00" from="-E2" to="-E8" type="truck_truck"/>
    <trip id="truck95" depart="475.00" from="-E8" to="-E4" type="truck_truck"/>
    <trip id="truck96" depart="480.00" from="-E3" to="E8" type="truck_truck"/>
    <trip id="truck97" depart="485.00" from="-E8" to="E6" type="truck_truck"/>
    <trip id="truck98" depart="490.00" from="E1" to="-E1" type="truck_truck"/>
    <trip id="truck99" depart="495.00" from="E9" to="E6" type="truck_truck"/>
    <trip id="truck100" depart="500.00" from="E9" to="E8" type="truck_truck"/>
    <trip id="truck101" depart="505.00" from="E6" to="-E11" type="truck_truck"/>
    <trip id="truck102" depart="510.00" from="-E9" to="-E3" type="truck_truck"/>
    <trip id="truck103" depart="515.00" from="-E7" to="-E1" type="truck_truck"/>
    <trip id="truck104" depart="520.00" from="-E7" to="E9" type="truck_truck"/>
    <trip id="truck105" depart="525.00" from="-E4" to="E4" type="truck_truck"/>
    <trip id="truck106" depart="530.00" from="-E8" to="-E8" type="truck_truck"/>
    <trip id="truck107" depart="535.00" from="E8" to="E9" type="truck_truck"/>
    <trip id="truck108" depart="540.00" from="E1" to="E3" type="truck_truck"/>
    <trip id="truck109" depart="545.00" from="-E11" to="-E5" type="truck_truck"/>
    <trip id="truck110" depart="550.00" from="E9" to="E1" type="truck_truck"/>
    <trip id="truck111" depart="555.00" from="E1" to="E3" type="truck_truck"/>
    <trip id="truck112" depart="560.00" from="-E1" to="E10" type="truck_truck"/>
    <trip id="truck113" depart="565.00" from="E0" to="E6" type="truck_truck"/>
    <trip id="truck114" depart="570.00" from="-E11" to="E9" type="truck_truck"/>
    <trip id="truck115" depart="575.00" from="-E1" to="-E2" type="truck_truck"/>
    <trip id="truck116" depart="580.00" from="E10" to="E2" type="truck_truck"/>
    <trip id="truck117" depart="585.00" from="-E3" to="-E10" type="truck_truck"/>
    <trip id="truck118" depart="590.00" from="E7" to="-E3" type="truck_truck"/>
    <trip id="truck119" depart="595.00" from="E10" to="E10" type="truck_truck"/>
    <trip id="truck120" depart="600.00" from="-E8" to="E10" type="truck_truck"/>
    <trip id="truck121" depart="605.00" from="E0" to="E8" type="truck_truck"/>
    <trip id="truck122" depart="610.00" from="-E2" to="E3" type="truck_truck"/>
    <trip id="truck123" depart="615.00" from="-E3" to="-E7" type="truck_truck"/>
    <trip id="truck124" depart="620.00" from="E2" to="-E5" type="truck_truck"/>
    <trip id="truck125" depart="625.00" from="-E5" to="E4" type="truck_truck"/>
    <trip id="truck126" depart="630.00" from="-E1" to="-E8" type="truck_truck"/>
    <trip id="truck127" depart="635.00" from="E9" to="E9" type="truck_truck"/>
    <trip id="truck128" depart="640.00" from="-E1" to="-E3" type="truck_truck"/>
    <trip id="truck129" depart="645.00" from="-E4" to="E8" type="truck_truck"/>
    <trip id="truck130" depart="650.00" from="E7" to="E7" type="truck_truck"/>
    <trip id="truck131" depart="655.00" from="-E6" to="-E11" type="truck_truck"/>
    <trip id="truck132" depart="660.00" from="E6" to="E2" type="truck_truck"/>
    <trip id="truck133" depart="665.00" from="E10" to="E9" type="truck_truck"/>
    <trip id="truck134" depart="670.00" from="E11" to="-E0" type="truck_truck"/>
    <trip id="truck135" depart="675.00" from="E5" to="-E5" type="truck_truck"/>
    <trip id="truck136" depart="680.00" from="E11" to="E8" type="truck_truck"/>
    <trip id="truck137" depart="685.00" from="-E11" to="-E10" type="truck_truck"/>
    <trip id="truck138" depart="690.00" from="-E10" to="E1" type="truck_truck"/>
    <trip id="truck139" depart="695.00" from="-E4" to="E10" type="truck_truck"/>
    <trip id="truck140" depart="700.00" from="E3" to="-E2" type="truck_truck"/>
    <trip id="truck141" depart="705.00" from="E11" to="-E4" type="truck_truck"/>
    <trip id="truck142" depart="710.00" from="-E9" to="E7" type="truck_truck"/>
    <trip id="truck143" depart="715.00" from="E6" to="-E10" type="truck_truck"/>
    <trip id="truck144" depart="720.00" from="-E8" to="-E4" type="truck_truck"/>
    <trip id="truck145" depart="725.00" from="-E0" to="E4" type="truck_truck"/>
    <trip id="truck146" depart="730.00" from="E11" to="-E4" type="truck_truck"/>
    <trip id="truck147" depart="735.00" from="E3" to="E1" type="truck_truck"/>
    <trip id="truck148" depart="740.00" from="-E8" to="-E0" type="truck_truck"/>
    <trip id="truck149" depart="745.00" from="-E1" to="E7" type="truck_truck"/>
    <trip id="truck150" depart="750.00" from="E7" to="E1" type="truck_truck"/>
    <trip id="truck151" depart="755.00" from="E6" to="E1" type="truck_truck"/>
    <trip id="truck152" depart="760.00" from="-E11" to="-E11" type="truck_truck"/>
    <trip id="truck153" depart="765.00" from="-E5" to="E7" type="truck_truck"/>
    <trip id="truck154" depart="770.00" from="E5" to="E6" type="truck_truck"/>
    <trip id="truck155" depart="775.00" from="E7" to="-E3" type="truck_truck"/>
    <trip id="truck156" depart="780.00" from="-E3" to="-E10" type="truck_truck"/>
    <trip id="truck157" depart="785.00" from="E4" to="E7" type="truck_truck"/>
    <trip id="truck158" depart="790.00" from="-E7" to="E10" type="truck_truck"/>
    <trip id="truck159" depart="795.00" from="-E11" to="E8" type="truck_truck"/>
    <trip id="truck160" depart="800.00" from="E6" to="E9" type="truck_truck"/>
    <trip id="truck161" depart="805.00" from="E5" to="E7" type="truck_truck"/>
    <trip id="truck162" depart="810.00" from="-E0" to="E3" type="truck_truck"/>
    <trip id="truck163" depart="815.00" from="-E5" to="E8" type="truck_truck"/>
    <trip id="truck164" depart="820.00" from="E5" to="E6" type="truck_truck"/>
    <trip id="truck165" depart="825.00" from="E5" to="-E4" type="truck_truck"/>
    <trip id="truck166" depart="830.00" from="E4" to="-E10" type="truck_truck"/>
    <trip id="truck167" depart="835.00" from="E6" to="E6" type="truck_truck"/>
    <trip id="truck168" depart="840.00" from="-E3" to="E5" type="truck_truck"/>
    <trip id="truck169" depart="845.00" from="-E9" to="-E5" type="truck_truck"/>
    <trip id="truck170" depart="850.00" from="E5" to="-E3" type="truck_truck"/>
    <trip id="truck171" depart="855.00" from="-E0" to="-E2" type="truck_truck"/>
    <trip id="truck172" depart="860.00" from="-E5" to="E6" type="truck_truck"/>
    <trip id="truck173" depart="865.00" from="E9" to="-E4" type="truck_truck"/>
    <trip id="truck174" depart="870.00" from="E11" to="-E7" type="truck_truck"/>
    <trip id="truck175" depart="875.00" from="E9" to="E0" type="truck_truck"/>
    <trip id="truck176" depart="880.00" from="E8" to="-E10" type="truck_truck"/>
    <trip id="truck177" depart="885.00" from="E9" to="-E2" type="truck_truck"/>
    <trip id="truck178" depart="890.00" from="E9" to="-E4" type="truck_truck"/>
    <trip id="truck179" depart="895.00" from="-E10" to="-E8" type="truck_truck"/>
    <trip id="truck180" depart="900.00" from="E3" to="-E5" type="truck_truck"/>
    <trip id="truck181" depart="905.00" from="E10" to="E0" type="truck_truck"/>
    <trip id="truck182" depart="910.00" from="-E7" to="E1" type="truck_truck"/>
    <trip id="truck183" depart="915.00" from="-E4" to="E3" type="truck_truck"/>
    <trip id="truck184" depart="920.00" from="-E0" to="E8" type="truck_truck"/>
    <trip id="truck185" depart="925.00" from="E0" to="E3" type="truck_truck"/>
    <trip id="truck186" depart="930.00" from="E3" to="E2" type="truck_truck"/>
    <trip id="truck187" depart="935.00" from="-E6" to="-E1" type="truck_truck"/>
    <trip id="truck188" depart="940.00" from="E11" to="-E5" type="truck_truck"/>
    <trip id="truck189" depart="945.00" from="-E5" to="E6" type="truck_truck"/>
    <trip id="truck190" depart="950.00" from="E3" to="-E5" type="truck_truck"/>
    <trip id="truck191" depart="955.00" from="-E5" to="-E7" type="truck_truck"/>
    <trip id="truck192" depart="960.00" from="-E7" to="-E5" type="truck_truck"/>
    <trip id="truck193" depart="965.00" from="-E11" to="-E8" type="truck_truck"/>
    <trip id="truck194" depart="970.00" from="E8" to="E2" type="truck_truck"/>
    <trip id="truck195" depart="975.00" from="E7" to="E10" type="truck_truck"/>
    <trip id="truck196" depart="980.00" from="-E5" to="E1" type="truck_truck"/>
    <trip id="truck197" depart="985.00" from="-E0" to="-E4" type="truck_truck"/>
    <trip id="truck198" depart="990.00" from="-E8" to="E1" type="truck_truck"/>
    <trip id="truck199" depart="995.00" from="E11" to="-E9" type="truck_truck"/>
    <trip id="truck200" depart="1000.00" from="-E8" to="-E3" type="truck_truck"/>
    <trip id="truck201" depart="1005.00" from="-E9" to="E7" type="truck_truck"/>
    <trip id="truck202" depart="1010.00" from="E5" to="-E2" type="truck_truck"/>
    <trip id="truck203" depart="1015.00" from="-E10" to="E0" type="truck_truck"/>
    <trip id="truck204" depart="1020.00" from="E11" to="-E6" type="truck_truck"/>
    <trip id="truck205" depart="1025.00" from="E5" to="E4" type="truck_truck"/>
    <trip id="truck206" depart="1030.00" from="E2" to="-E3" type="truck_truck"/>
    <trip id="truck207" depart="1035.00" from="-E2" to="-E0" type="truck_truck"/>
    <trip id="truck208" depart="1040.00" from="-E3" to="-E9" type="truck_truck"/>
    <trip id="truck209" depart="1045.00" from="E6" to="-E1" type="truck_truck"/>
    <trip id="truck210" depart="1050.00" from="-E7" to="E11" type="truck_truck"/>
    <trip id="truck211" depart="1055.00" from="-E2" to="E2" type="truck_truck"/>
    <trip id="truck212" depart="1060.00" from="-E9" to="-E3" type="truck_truck"/>
    <trip id="truck213" depart="1065.00" from="E11" to="-E0" type="truck_truck"/>
    <trip id="truck214" depart="1070.00" from="E4" to="E4" type="truck_truck"/>
    <trip id="truck215" depart="1075.00" from="-E10" to="-E8" type="truck_truck"/>
    <trip id="truck216" depart="1080.00" from="-E2" to="E8" type="truck_truck"/>
    <trip id="truck217" depart="1085.00" from="E0" to="-E1" type="truck_truck"/>
    <trip id="truck218" depart="1090.00" from="-E3" to="E6" type="truck_truck"/>
    <trip id="truck219" depart="1095.00" from="-E8" to="E5" type="truck_truck"/>
    <trip id="truck220" depart="1100.00" from="E2" to="E9" type="truck_truck"/>
    <trip id="truck221" depart="1105.00" from="E10" to="E8" type="truck_truck"/>
    <trip id="truck222" depart="1110.00" from="E7" to="E10" type="truck_truck"/>
    <trip id="truck223" depart="1115.00" from="E3" to="E0" type="truck_truck"/>
    <trip id="truck224" depart="1120.00" from="E5" to="E1" type="truck_truck"/>
    <trip id="truck225" depart="1125.00" from="E7" to="E3" type="truck_truck"/>
    <trip id="truck226" depart="1130.00" from="-E9" to="-E4" type="truck_truck"/>
    <trip id="truck227" depart="1135.00" from="-E3" to="E11" type="truck_truck"/>
    <trip id="truck228" depart="1140.00" from="E4" to="E0" type="truck_truck"/>
    <trip id="truck229" depart="1145.00" from="E11" to="-E4" type="truck_truck"/>
    <trip id="truck230" depart="1150.00" from="-E1" to="-E4" type="truck_truck"/>
    <trip id="truck231" depart="1155.00" from="-E4" to="-E5" type="truck_truck"/>
    <trip id="truck232" depart="1160.00" from="E0" to="-E11" type="truck_truck"/>
    <trip id="truck233" depart="1165.00" from="-E3" to="E2" type="truck_truck"/>
    <trip id="truck234" depart="1170.00" from="E2" to="-E1" type="truck_truck"/>
    <trip id="truck235" depart="1175.00" from="-E7" to="E1" type="truck_truck"/>
    <trip id="truck236" depart="1180.00" from="-E7" to="-E2" type="truck_truck"/>
    <trip id="truck237" depart="1185.00" from="-E8" to="E7" type="truck_truck"/>
    <trip id="truck238" depart="1190.00" from="E10" to="E2" type="truck_truck"/>
    <trip id="truck239" depart="1195.00" from="E6" to="E4" type="truck_truck"/>
    <trip id="truck240" depart="1200.00" from="-E7" to="-E0" type="truck_truck"/>
    <trip id="truck241" depart="1205.00" from="-E6" to="E4" type="truck_truck"/>
    <trip id="truck242" depart="1210.00" from="E6" to="E8" type="truck_truck"/>
    <trip id="truck243" depart="1215.00" from="-E8" to="E3" type="truck_truck"/>
    <trip id="truck244" depart="1220.00" from="E1" to="E10" type="truck_truck"/>
    <trip id="truck245" depart="1225.00" from="-E3" to="-E3" type="truck_truck"/>
    <trip id="truck246" depart="1230.00" from="-E8" to="-E0" type="truck_truck"/>
    <trip id="truck247" depart="1235.00" from="-E6" to="E2" type="truck_truck"/>
    <trip id="truck248" depart="1240.00" from="-E7" to="-E11" type="truck_truck"/>
    <trip id="truck249" depart="1245.00" from="-E9" to="-E11" type="truck_truck"/>
    <trip id="truck250" depart="1250.00" from="E10" to="-E0" type="truck_truck"/>
    <trip id="truck251" depart="1255.00" from="-E7" to="E1" type="truck_truck"/>
    <trip id="truck252" depart="1260.00" from="-E0" to="E11" type="truck_truck"/>
    <trip id="truck253" depart="1265.00" from="-E11" to="-E9" type="truck_truck"/>
    <trip id="truck254" depart="1270.00" from="-E1" to="-E7" type="truck_truck"/>
    <trip id="truck255" depart="1275.00" from="-E3" to="-E5" type="truck_truck"/>
    <trip id="truck256" depart="1280.00" from="E4" to="-E7" type="truck_truck"/>
    <trip id="truck257" depart="1285.00" from="E4" to="E5" type="truck_truck"/>
    <trip id="truck258" depart="1290.00" from="-E4" to="-E1" type="truck_truck"/>
    <trip id="truck259" depart="1295.00" from="-E0" to="E0" type="truck_truck"/>
    <trip id="truck260" depart="1300.00" from="E9" to="-E6" type="truck_truck"/>
    <trip id="truck261" depart="1305.00" from="E11" to="E4" type="truck_truck"/>
    <trip id="truck262" depart="1310.00" from="E11" to="E4" type="truck_truck"/>
    <trip id="truck263" depart="1315.00" from="E8" to="-E2" type="truck_truck"/>
    <trip id="truck264" depart="1320.00" from="-E0" to="-E11" type="truck_truck"/>
    <trip id="truck265" depart="1325.00" from="-E11" to="E2" type="truck_truck"/>
    <trip id="truck266" depart="1330.00" from="E1" to="-E3" type="truck_truck"/>
    <trip id="truck267" depart="1335.00" from="E2" to="E4" type="truck_truck"/>
    <trip id="truck268" depart="1340.00" from="-E2" to="E10" type="truck_truck"/>
    <trip id="truck269" depart="1345.00" from="E3" to="-E10" type="truck_truck"/>
    <trip id="truck270" depart="1350.00" from="E5" to="E9" type="truck_truck"/>
    <trip id="truck271" depart="1355.00" from="-E10" to="-E0" type="truck_truck"/>
    <trip id="truck272" depart="1360.00" from="-E5" to="E2" type="truck_truck"/>
    <trip id="truck273" depart="1365.00" from="E8" to="-E7" type="truck_truck"/>
    <trip id="truck274" depart="1370.00" from="E3" to="-E1" type="truck_truck"/>
    <trip id="truck275" depart="1375.00" from="E2" to="E11" type="truck_truck"/>
    <trip id="truck276" depart="1380.00" from="-E10" to="E4" type="truck_truck"/>
    <trip id="truck277" depart="1385.00" from="E6" to="E10" type="truck_truck"/>
    <trip id="truck278" depart="1390.00" from="-E10" to="E9" type="truck_truck"/>
    <trip id="truck279" depart="1395.00" from="E4" to="-E6" type="truck_truck"/>
    <trip id="truck280" depart="1400.00" from="-E8" to="-E6" type="truck_truck"/>
    <trip id="truck281" depart="1405.00" from="E0" to="-E6" type="truck_truck"/>
    <trip id="truck282" depart="1410.00" from="E6" to="E5" type="truck_truck"/>
    <trip id="truck283" depart="1415.00" from="-E10" to="E9" type="truck_truck"/>
    <trip id="truck284" depart="1420.00" from="E11" to="E5" type="truck_truck"/>
    <trip id="truck285" depart="1425.00" from="E2" to="-E8" type="truck_truck"/>
    <trip id="truck286" depart="1430.00" from="E3" to="E9" type="truck_truck"/>
    <trip id="truck287" depart="1435.00" from="-E4" to="E5" type="truck_truck"/>
    <trip id="truck288" depart="1440.00" from="E0" to="-E9" type="truck_truck"/>
    <trip id="truck289" depart="1445.00" from="-E8" to="E3" type="truck_truck"/>
    <trip id="truck290" depart="1450.00" from="-E4" to="E6" type="truck_truck"/>
    <trip id="truck291" depart="1455.00" from="E5" to="-E10" type="truck_truck"/>
    <trip id="truck292" depart="1460.00" from="E7" to="-E3" type="truck_truck"/>
    <trip id="truck293" depart="1465.00" from="-E9" to="E10" type="truck_truck"/>
    <trip id="truck294" depart="1470.00" from="-E7" to="-E0" type="truck_truck"/>
    <trip id="truck295" depart="1475.00" from="E6" to="-E2" type="truck_truck"/>
    <trip id="truck296" depart="1480.00" from="-E3" to="E5" type="truck_truck"/>
    <trip id="truck297" depart="1485.00" from="-E6" to="E7" type="truck_truck"/>
    <trip id="truck298" depart="1490.00" from="E2" to="-E4" type="truck_truck"/>
    <trip id="truck299" depart="1495.00" from="-E0" to="E8" type="truck_truck"/>
    <trip id="truck300" depart="1500.00" from="-E10" to="E3" type="truck_truck"/>
    <trip id="truck301" depart="1505.00" from="-E9" to="E4" type="truck_truck"/>
    <trip id="truck302" depart="1510.00" from="E2" to="E11" type="truck_truck"/>
    <trip id="truck303" depart="1515.00" from="-E9" to="E5" type="truck_truck"/>
    <trip id="truck304" depart="1520.00" from="-E10" to="-E3" type="truck_truck"/>
    <trip id="truck305" depart="1525.00" from="E2" to="-E5" type="truck_truck"/>
    <trip id="truck306" depart="1530.00" from="E1" to="-E9" type="truck_truck"/>
    <trip id="truck307" depart="1535.00" from="E0" to="-E8" type="truck_truck"/>
    <trip id="truck308" depart="1540.00" from="E3" to="-E5" type="truck_truck"/>
    <trip id="truck309" depart="1545.00" from="E2" to="-E4" type="truck_truck"/>
    <trip id="truck310" depart="1550.00" from="-E4" to="-E10" type="truck_truck"/>
    <trip id="truck311" depart="1555.00" from="-E2" to="-E10" type="truck_truck"/>
    <trip id="truck312" depart="1560.00" from="E0" to="E4" type="truck_truck"/>
    <trip id="truck313" depart="1565.00" from="-E2" to="-E3" type="truck_truck"/>
    <trip id="truck314" depart="1570.00" from="-E9" to="E3" type="truck_truck"/>
    <trip id="truck315" depart="1575.00" from="E9" to="E0" type="truck_truck"/>
    <trip id="truck316" depart="1580.00" from="-E4" to="-E10" type="truck_truck"/>
    <trip id="truck317" depart="1585.00" from="-E2" to="-E3" type="truck_truck"/>
    <trip id="truck318" depart="1590.00" from="-E2" to="-E0" type="truck_truck"/>
    <trip id="truck319" depart="1595.00" from="E0" to="-E4" type="truck_truck"/>
    <trip id="truck320" depart="1600.00" from="E9" to="E1" type="truck_truck"/>
    <trip id="truck321" depart="1605.00" from="E2" to="-E11" type="truck_truck"/>
    <trip id="truck322" depart="1610.00" from="E6" to="-E9" type="truck_truck"/>
    <trip id="truck323" depart="1615.00" from="E6" to="E1" type="truck_truck"/>
    <trip id="truck324" depart="1620.00" from="-E9" to="-E8" type="truck_truck"/>
    <trip id="truck325" depart="1625.00" from="-E2" to="-E1" type="truck_truck"/>
    <trip id="truck326" depart="1630.00" from="E8" to="-E9" type="truck_truck"/>
    <trip id="truck327" depart="1635.00" from="E5" to="-E7" type="truck_truck"/>
    <trip id="truck328" depart="1640.00" from="-E1" to="E11" type="truck_truck"/>
    <trip id="truck329" depart="1645.00" from="-E1" to="-E11" type="truck_truck"/>
    <trip id="truck330" depart="1650.00" from="E1" to="-E5" type="truck_truck"/>
    <trip id="truck331" depart="1655.00" from="E9" to="-E10" type="truck_truck"/>
    <trip id="truck332" depart="1660.00" from="E4" to="E10" type="truck_truck"/>
    <trip id="truck333" depart="1665.00" from="E4" to="-E3" type="truck_truck"/>
    <trip id="truck334" depart="1670.00" from="E0" to="-E8" type="truck_truck"/>
    <trip id="truck335" depart="1675.00" from="-E8" to="E6" type="truck_truck"/>
    <trip id="truck336" depart="1680.00" from="E9" to="-E5" type="truck_truck"/>
    <trip id="truck337" depart="1685.00" from="E10" to="E10" type="truck_truck"/>
    <trip id="truck338" depart="1690.00" from="E3" to="E8" type="truck_truck"/>
    <trip id="truck339" depart="1695.00" from="-E2" to="-E3" type="truck_truck"/>
    <trip id="truck340" depart="1700.00" from="E11" to="-E11" type="truck_truck"/>
    <trip id="truck341" depart="1705.00" from="-E2" to="-E1" type="truck_truck"/>
    <trip id="truck342" depart="1710.00" from="-E0" to="-E8" type="truck_truck"/>
    <trip id="truck343" depart="1715.00" from="E10" to="-E4" type="truck_truck"/>
    <trip id="truck344" depart="1720.00" from="-E3" to="E2" type="truck_truck"/>
    <trip id="truck345" depart="1725.00" from="E2" to="-E8" type="truck_truck"/>
    <trip id="truck346" depart="1730.00" from="E2" to="E8" type="truck_truck"/>
    <trip id="truck347" depart="1735.00" from="E4" to="E11" type="truck_truck"/>
    <trip id="truck348" depart="1740.00" from="E11" to="E8" type="truck_truck"/>
    <trip id="truck349" depart="1745.00" from="-E8" to="E1" type="truck_truck"/>
    <trip id="truck350" depart="1750.00" from="E11" to="E7" type="truck_truck"/>
    <trip id="truck351" depart="1755.00" from="E5" to="-E1" type="truck_truck"/>
    <trip id="truck352" depart="1760.00" from="-E11" to="-E5" type="truck_truck"/>
    <trip id="truck353" depart="1765.00" from="E3" to="E1" type="truck_truck"/>
    <trip id="truck354" depart="1770.00" from="-E4" to="-E10" type="truck_truck"/>
    <trip id="truck355" depart="1775.00" from="E2" to="E2" type="truck_truck"/>
    <trip id="truck356" depart="1780.00" from="E8" to="E0" type="truck_truck"/>
    <trip id="truck357" depart="1785.00" from="-E9" to="-E1" type="truck_truck"/>
    <trip id="truck358" depart="1790.00" from="-E0" to="-E8" type="truck_truck"/>
    <trip id="truck359" depart="1795.00" from="-E5" to="-E4" type="truck_truck"/>
    <trip id="truck360" depart="1800.00" from="-E10" to="E9" type="truck_truck"/>
    <trip id="truck361" depart="1805.00" from="E6" to="E1" type="truck_truck"/>
    <trip id="truck362" depart="1810.00" from="E8" to="E9" type="truck_truck"/>
    <trip id="truck363" depart="1815.00" from="E2" to="-E4" type="truck_truck"/>
    <trip id="truck364" depart="1820.00" from="-E0" to="E4" type="truck_truck"/>